__1y6o_B_rec_3hsw_mcw_lig_docked.pdb
 OpenBabel10201902083D

 10 10  0  0  0  0  0  0  0  0999 V2000
   34.5580   21.9970    6.9050 C   0  0  0  0  0  0  0  0  0  0  0  0
   34.4010   22.9460    7.9180 C   0  0  0  0  0  0  0  0  0  0  0  0
   34.2340   24.2690    7.5960 C   0  0  0  0  0  0  0  0  0  0  0  0
   34.0910   25.0980    8.4600 O   0  0  0  0  0  0  0  0  0  0  0  0
   34.1980   24.7030    6.3080 C   0  0  0  0  0  0  0  0  0  0  0  0
   34.3360   23.7760    5.2900 C   0  0  0  0  0  0  0  0  0  0  0  0
   34.5160   22.4360    5.5830 C   0  0  0  0  0  0  0  0  0  0  0  0
   34.6410   21.6630    4.6420 O   0  0  0  0  0  0  0  0  0  0  0  0
   36.1080   20.1830    7.5300 C   0  0  0  0  0  0  0  0  0  0  0  0
   34.7420   20.6530    7.1860 O   0  0  0  0  0  0  0  0  0  0  0  0
  1  7  1  0  0  0  0
  1 10  1  0  0  0  0
  1  2  2  0  0  0  0
  2  3  1  0  0  0  0
  3  5  1  0  0  0  0
  3  4  2  0  0  0  0
  5  6  2  0  0  0  0
  6  7  1  0  0  0  0
  7  8  2  0  0  0  0
  9 10  1  0  0  0  0
M  END
>  <MODEL>
       5

>  <COMPND>
    UNNAMED

>  <AUTHOR>
    GENERATED BY OPEN BABEL 2.4.90

>  <MASTER>
        0    0    0    0    0    0    0    0   10    0   10    0

