__3l30_A_rec_3o4m_caq_lig_min.pdb
 OpenBabel10201901323D

  8  8  0  0  0  0  0  0  0  0999 V2000
   34.3500   25.1730    8.0730 C   0  0  0  0  0  0  0  0  0  0  0  0
   34.4770   24.9070    6.7130 C   0  0  0  0  0  0  0  0  0  0  0  0
   34.4360   23.6000    6.2510 C   0  0  0  0  0  0  0  0  0  0  0  0
   34.5530   23.2730    4.9450 O   0  0  0  0  0  0  0  0  0  0  0  0
   34.2700   22.5840    7.1510 C   0  0  0  0  0  0  0  0  0  0  0  0
   34.2230   21.3120    6.6470 O   0  0  0  0  0  0  0  0  0  0  0  0
   34.1410   22.8510    8.5150 C   0  0  0  0  0  0  0  0  0  0  0  0
   34.1780   24.1530    8.9770 C   0  0  0  0  0  0  0  0  0  0  0  0
  1  2  2  0  0  0  0
  1  8  1  0  0  0  0
  2  3  1  0  0  0  0
  3  4  1  0  0  0  0
  3  5  2  0  0  0  0
  5  6  1  0  0  0  0
  5  7  1  0  0  0  0
  7  8  2  0  0  0  0
M  END
>  <COMPND>
    UNNAMED

>  <AUTHOR>
    GENERATED BY OPEN BABEL 2.4.90

>  <MASTER>
        0    0    0    0    0    0    0    0    8    0    8    0

