__3o4m_A_rec_3hsw_mcw_lig_min.pdb
 OpenBabel10201901263D

 10 10  0  0  0  0  0  0  0  0999 V2000
   34.4050   22.5730    6.6550 C   0  0  0  0  0  0  0  0  0  0  0  0
   34.1470   23.2180    7.8660 C   0  0  0  0  0  0  0  0  0  0  0  0
   34.0640   24.5870    7.9080 C   0  0  0  0  0  0  0  0  0  0  0  0
   33.8360   25.1570    8.9460 O   0  0  0  0  0  0  0  0  0  0  0  0
   34.2080   25.3570    6.7960 C   0  0  0  0  0  0  0  0  0  0  0  0
   34.4470   24.7350    5.5830 C   0  0  0  0  0  0  0  0  0  0  0  0
   34.5470   23.3570    5.5110 C   0  0  0  0  0  0  0  0  0  0  0  0
   34.7680   22.8620    4.4140 O   0  0  0  0  0  0  0  0  0  0  0  0
   35.8350   20.5690    6.8130 C   0  0  0  0  0  0  0  0  0  0  0  0
   34.5100   21.1940    6.5700 O   0  0  0  0  0  0  0  0  0  0  0  0
  1  7  1  0  0  0  0
  1 10  1  0  0  0  0
  1  2  2  0  0  0  0
  2  3  1  0  0  0  0
  3  5  1  0  0  0  0
  3  4  2  0  0  0  0
  5  6  2  0  0  0  0
  6  7  1  0  0  0  0
  7  8  2  0  0  0  0
  9 10  1  0  0  0  0
M  END
>  <COMPND>
    UNNAMED

>  <AUTHOR>
    GENERATED BY OPEN BABEL 2.4.90

>  <MASTER>
        0    0    0    0    0    0    0    0   10    0   10    0

