__3qlm_A_rec_4o1y_nla_lig_min.pdb
 OpenBabel10201901333D

 14 15  0  0  0  0  0  0  0  0999 V2000
   35.1440   22.8970    7.4020 C   0  0  0  0  0  0  0  0  0  0  0  0
   35.6270   22.1430    6.2320 C   0  0  0  0  0  0  0  0  0  0  0  0
   35.3360   22.6540    5.0080 C   0  0  0  0  0  0  0  0  0  0  0  0
   34.6510   23.8250    4.8480 C   0  0  0  0  0  0  0  0  0  0  0  0
   34.1890   24.5450    5.9220 C   0  0  0  0  0  0  0  0  0  0  0  0
   34.4220   24.1250    7.1910 C   0  0  0  0  0  0  0  0  0  0  0  0
   33.9820   24.8360    8.2560 C   0  0  0  0  0  0  0  0  0  0  0  0
   34.2290   24.3860    9.5180 C   0  0  0  0  0  0  0  0  0  0  0  0
   34.9110   23.2180    9.7500 C   0  0  0  0  0  0  0  0  0  0  0  0
   35.3690   22.4860    8.6840 C   0  0  0  0  0  0  0  0  0  0  0  0
   36.3930   20.8470    6.3770 C   0  0  0  0  0  0  0  0  0  0  0  0
   36.7240   20.0990    5.1140 C   0  0  0  0  0  0  0  0  0  0  0  0
   37.7790   20.3220    4.5350 O   0  0  0  0  0  0  0  0  0  0  0  0
   35.9230   19.2540    4.6890 O   0  0  0  0  0  0  0  0  0  0  0  0
  1  6  1  0  0  0  0
  1  2  2  0  0  0  0
  1 10  1  0  0  0  0
  2  3  1  0  0  0  0
  2 11  1  0  0  0  0
  3  4  2  0  0  0  0
  4  5  1  0  0  0  0
  5  6  2  0  0  0  0
  6  7  1  0  0  0  0
  7  8  2  0  0  0  0
  8  9  1  0  0  0  0
  9 10  2  0  0  0  0
 11 12  1  0  0  0  0
 12 13  2  0  0  0  0
 12 14  1  0  0  0  0
M  END
>  <COMPND>
    UNNAMED

>  <AUTHOR>
    GENERATED BY OPEN BABEL 2.4.90

>  <MASTER>
        0    0    0    0    0    0    0    0   14    0   14    0

