__1v7u_A_rec_1x08_fps_lig_min.pdb
 OpenBabel10181914293D

 24 23  0  0  0  0  0  0  0  0999 V2000
   21.6870   18.4740   23.5380 C   0  0  0  0  0  0  0  0  0  0  0  0
   22.6030   18.6010   24.5380 C   0  0  0  0  0  0  0  0  0  0  0  0
   24.1390   18.4290   24.3680 C   0  0  0  0  0  0  0  0  0  0  0  0
   22.0790   18.1410   22.1220 C   0  0  0  0  0  0  0  0  0  0  0  0
   20.8890   17.4000   21.0450 S   0  0  0  0  0  0  0  0  0  0  0  0
   19.9570   19.0690   20.2900 P   0  0  1  0  0  0  0  0  0  0  0  0
   18.7580   19.4760   21.1190 O   0  0  0  0  0  0  0  0  0  0  0  0
   20.9270   20.1540   19.8640 O   0  0  0  0  0  0  0  0  0  0  0  0
   19.2230   18.6960   18.9260 O   0  0  0  0  0  0  0  0  0  0  0  0
   17.6900   18.2240   18.7530 P   0  0  0  0  0  0  0  0  0  0  0  0
   17.4100   17.3340   17.5660 O   0  0  0  0  0  0  0  0  0  0  0  0
   16.8180   19.4360   18.6900 O   0  0  0  0  0  0  0  0  0  0  0  0
   17.1550   17.3510   19.9510 O   0  0  0  0  0  0  0  0  0  0  0  0
   22.1300   18.9420   25.9110 C   0  0  0  0  0  0  0  0  0  0  0  0
   21.8570   17.7680   26.8630 C   0  0  0  0  0  0  0  0  0  0  0  0
   22.2010   18.2120   28.2790 C   0  0  0  0  0  0  0  0  0  0  0  0
   21.5460   19.0930   29.0850 C   0  0  0  0  0  0  0  0  0  0  0  0
   20.2740   19.8640   28.7570 C   0  0  0  0  0  0  0  0  0  0  0  0
   22.1720   19.3120   30.4370 C   0  0  0  0  0  0  0  0  0  0  0  0
   23.3020   18.3920   30.6560 C   0  0  0  0  0  0  0  0  0  0  0  0
   23.8460   18.5060   32.0550 C   0  0  0  0  0  0  0  0  0  0  0  0
   24.4310   17.5690   32.7900 C   0  0  0  0  0  0  0  0  0  0  0  0
   24.6440   16.1570   32.2850 C   0  0  0  0  0  0  0  0  0  0  0  0
   24.9380   17.8110   34.2100 C   0  0  0  0  0  0  0  0  0  0  0  0
  1  4  1  0  0  0  0
  1  2  2  0  0  0  0
  2  3  1  0  0  0  0
  2 14  1  0  0  0  0
  4  5  1  0  0  0  0
  5  6  1  0  0  0  0
  6  9  1  0  0  0  0
  6  8  2  6  0  0  0
  6  7  1  0  0  0  0
  9 10  1  0  0  0  0
 10 11  2  0  0  0  0
 10 13  1  0  0  0  0
 10 12  1  0  0  0  0
 14 15  1  0  0  0  0
 15 16  1  0  0  0  0
 16 17  2  0  0  0  0
 17 18  1  0  0  0  0
 17 19  1  0  0  0  0
 19 20  1  0  0  0  0
 20 21  1  0  0  0  0
 21 22  2  0  0  0  0
 22 23  1  0  0  0  0
 22 24  1  0  0  0  0
M  END
>  <COMPND>
    UNNAMED

>  <AUTHOR>
    GENERATED BY OPEN BABEL 2.4.90

>  <MASTER>
        0    0    0    0    0    0    0    0   24    0   24    0

