__1v7u_A_rec_1x06_fps_lig_min.pdb
 OpenBabel10181914293D

 24 23  0  0  0  0  0  0  0  0999 V2000
   21.6310   17.2260   23.6600 C   0  0  0  0  0  0  0  0  0  0  0  0
   22.6810   17.8060   24.2650 C   0  0  0  0  0  0  0  0  0  0  0  0
   24.0810   18.2730   23.7810 C   0  0  0  0  0  0  0  0  0  0  0  0
   21.1920   16.7350   22.3360 C   0  0  0  0  0  0  0  0  0  0  0  0
   19.7950   17.7300   22.5630 S   0  0  0  0  0  0  0  0  0  0  0  0
   19.6420   18.3520   21.0140 P   0  0  1  0  0  0  0  0  0  0  0  0
   20.0210   19.8720   21.1950 O   0  0  0  0  0  0  0  0  0  0  0  0
   20.3320   17.4360   19.9880 O   0  0  0  0  0  0  0  0  0  0  0  0
   18.0970   18.4520   20.7340 O   0  0  0  0  0  0  0  0  0  0  0  0
   17.3310   18.1100   19.3680 P   0  0  0  0  0  0  0  0  0  0  0  0
   15.9110   17.8020   19.4560 O   0  0  0  0  0  0  0  0  0  0  0  0
   18.0050   17.0110   18.5970 O   0  0  0  0  0  0  0  0  0  0  0  0
   17.3260   19.3060   18.3820 O   0  0  0  0  0  0  0  0  0  0  0  0
   22.3240   18.0250   25.6670 C   0  0  0  0  0  0  0  0  0  0  0  0
   22.9820   17.1100   26.7050 C   0  0  0  0  0  0  0  0  0  0  0  0
   23.3110   18.0580   27.8570 C   0  0  0  0  0  0  0  0  0  0  0  0
   22.5240   18.3650   28.9120 C   0  0  0  0  0  0  0  0  0  0  0  0
   21.1150   17.7970   29.1880 C   0  0  0  0  0  0  0  0  0  0  0  0
   23.1080   19.3440   29.8790 C   0  0  0  0  0  0  0  0  0  0  0  0
   23.0330   18.8650   31.3100 C   0  0  0  0  0  0  0  0  0  0  0  0
   24.3780   18.4680   31.8540 C   0  0  0  0  0  0  0  0  0  0  0  0
   24.7660   18.4650   33.1480 C   0  0  0  0  0  0  0  0  0  0  0  0
   23.9040   18.8660   34.3360 C   0  0  0  0  0  0  0  0  0  0  0  0
   26.1470   18.0430   33.5580 C   0  0  0  0  0  0  0  0  0  0  0  0
  1  4  1  0  0  0  0
  1  2  2  0  0  0  0
  2  3  1  0  0  0  0
  2 14  1  0  0  0  0
  4  5  1  0  0  0  0
  5  6  1  0  0  0  0
  6  8  2  6  0  0  0
  6  9  1  0  0  0  0
  6  7  1  0  0  0  0
  9 10  1  0  0  0  0
 10 13  2  0  0  0  0
 10 12  1  0  0  0  0
 10 11  1  0  0  0  0
 14 15  1  0  0  0  0
 15 16  1  0  0  0  0
 16 17  2  0  0  0  0
 17 18  1  0  0  0  0
 17 19  1  0  0  0  0
 19 20  1  0  0  0  0
 20 21  1  0  0  0  0
 21 22  2  0  0  0  0
 22 24  1  0  0  0  0
 22 23  1  0  0  0  0
M  END
>  <COMPND>
    UNNAMED

>  <AUTHOR>
    GENERATED BY OPEN BABEL 2.4.90

>  <MASTER>
        0    0    0    0    0    0    0    0   24    0   24    0

