__1v7u_A_rec_5cqj_53q_lig_min.pdb
 OpenBabel10181914283D

 23 25  0  0  0  0  0  0  0  0999 V2000
   25.2380   19.1140   33.2100 C   0  0  0  0  0  0  0  0  0  0  0  0
   26.4950   18.6000   33.4960 C   0  0  0  0  0  0  0  0  0  0  0  0
   27.5460   18.0240   32.2490 Cl  0  0  0  0  0  0  0  0  0  0  0  0
   22.4090   20.0330   36.2790 C   0  0  0  0  0  0  0  0  0  0  0  0
   23.1100   18.8370   36.3230 C   0  0  0  0  0  0  0  0  0  0  0  0
   24.0140   18.5400   35.3170 C   0  0  0  0  0  0  0  0  0  0  0  0
   24.2340   19.4200   34.2600 C   0  0  0  0  0  0  0  0  0  0  0  0
   23.5040   20.6080   34.2280 C   0  0  0  0  0  0  0  0  0  0  0  0
   22.6020   20.9200   35.2320 C   0  0  0  0  0  0  0  0  0  0  0  0
   20.3470   21.0790   36.9680 C   0  0  0  0  0  0  0  0  0  0  0  0
   21.5270   20.3290   37.2950 O   0  0  0  0  0  0  0  0  0  0  0  0
   27.1210   18.3830   34.8170 C   0  0  0  0  0  0  0  0  0  0  0  0
   26.4900   17.5980   35.7780 C   0  0  0  0  0  0  0  0  0  0  0  0
   28.3870   18.8870   35.0920 C   0  0  0  0  0  0  0  0  0  0  0  0
   29.0100   18.6080   36.2960 C   0  0  0  0  0  0  0  0  0  0  0  0
   28.3800   17.8230   37.2370 C   0  0  0  0  0  0  0  0  0  0  0  0
   27.1230   17.3200   36.9790 C   0  0  0  0  0  0  0  0  0  0  0  0
   24.7660   19.3240   31.8120 C   0  0  0  0  0  0  0  0  0  0  0  0
   23.7110   18.5710   31.3020 C   0  0  0  0  0  0  0  0  0  0  0  0
   23.2720   18.7600   30.0030 C   0  0  0  0  0  0  0  0  0  0  0  0
   23.8760   19.6940   29.1950 C   0  0  0  0  0  0  0  0  0  0  0  0
   24.9140   20.4550   29.6860 C   0  0  0  0  0  0  0  0  0  0  0  0
   25.3550   20.2770   30.9850 C   0  0  0  0  0  0  0  0  0  0  0  0
  1 18  1  0  0  0  0
  1  2  2  0  0  0  0
  1  7  1  0  0  0  0
  2  3  1  0  0  0  0
  2 12  1  0  0  0  0
  4  9  2  0  0  0  0
  4  5  1  0  0  0  0
  4 11  1  0  0  0  0
  5  6  2  0  0  0  0
  6  7  1  0  0  0  0
  7  8  2  0  0  0  0
  8  9  1  0  0  0  0
 10 11  1  0  0  0  0
 12 14  2  0  0  0  0
 12 13  1  0  0  0  0
 13 17  2  0  0  0  0
 14 15  1  0  0  0  0
 15 16  2  0  0  0  0
 16 17  1  0  0  0  0
 18 23  2  0  0  0  0
 18 19  1  0  0  0  0
 19 20  2  0  0  0  0
 20 21  1  0  0  0  0
 21 22  2  0  0  0  0
 22 23  1  0  0  0  0
M  END
>  <COMPND>
    UNNAMED

>  <AUTHOR>
    GENERATED BY OPEN BABEL 2.4.90

>  <MASTER>
        0    0    0    0    0    0    0    0   23    0   23    0

