__1x08_A_rec_1x06_fps_lig_docked.pdb
 OpenBabel10181914313D

 24 23  0  0  0  0  0  0  0  0999 V2000
   23.2700   17.8350   38.4890 C   0  0  0  0  0  0  0  0  0  0  0  0
   23.6470   18.5970   37.4470 C   0  0  0  0  0  0  0  0  0  0  0  0
   22.8890   19.5240   36.4600 C   0  0  0  0  0  0  0  0  0  0  0  0
   22.0660   17.4500   39.2570 C   0  0  0  0  0  0  0  0  0  0  0  0
   23.1660   16.7820   40.4140 S   0  0  0  0  0  0  0  0  0  0  0  0
   22.2670   17.0050   41.8110 P   0  0  1  0  0  0  0  0  0  0  0  0
   23.2900   17.6920   42.7950 O   0  0  0  0  0  0  0  0  0  0  0  0
   20.8900   17.6100   41.4840 O   0  0  0  0  0  0  0  0  0  0  0  0
   22.1190   15.5820   42.4670 O   0  0  0  0  0  0  0  0  0  0  0  0
   20.8120   14.9580   43.1530 P   0  0  0  0  0  0  0  0  0  0  0  0
   19.5530   15.0810   42.4310 O   0  0  0  0  0  0  0  0  0  0  0  0
   20.6040   15.4680   44.5520 O   0  0  0  0  0  0  0  0  0  0  0  0
   20.9170   13.4210   43.3300 O   0  0  0  0  0  0  0  0  0  0  0  0
   25.0990   18.4800   37.3120 C   0  0  0  0  0  0  0  0  0  0  0  0
   25.6880   17.0650   37.3220 C   0  0  0  0  0  0  0  0  0  0  0  0
   27.0190   17.2290   36.5900 C   0  0  0  0  0  0  0  0  0  0  0  0
   28.1100   17.9020   37.0210 C   0  0  0  0  0  0  0  0  0  0  0  0
   28.2470   18.6370   38.3710 C   0  0  0  0  0  0  0  0  0  0  0  0
   29.2690   17.9070   36.0780 C   0  0  0  0  0  0  0  0  0  0  0  0
   28.9690   18.6360   34.7880 C   0  0  0  0  0  0  0  0  0  0  0  0
   30.1670   19.3680   34.2500 C   0  0  0  0  0  0  0  0  0  0  0  0
   30.6280   19.3550   32.9800 C   0  0  0  0  0  0  0  0  0  0  0  0
   30.0150   18.5870   31.8190 C   0  0  0  0  0  0  0  0  0  0  0  0
   31.8430   20.1370   32.5730 C   0  0  0  0  0  0  0  0  0  0  0  0
  1  4  1  0  0  0  0
  1  2  2  0  0  0  0
  2  3  1  0  0  0  0
  2 14  1  0  0  0  0
  4  5  1  0  0  0  0
  5  6  1  0  0  0  0
  6  8  2  6  0  0  0
  6  9  1  0  0  0  0
  6  7  1  0  0  0  0
  9 10  1  0  0  0  0
 10 13  2  0  0  0  0
 10 12  1  0  0  0  0
 10 11  1  0  0  0  0
 14 15  1  0  0  0  0
 15 16  1  0  0  0  0
 16 17  2  0  0  0  0
 17 18  1  0  0  0  0
 17 19  1  0  0  0  0
 19 20  1  0  0  0  0
 20 21  1  0  0  0  0
 21 22  2  0  0  0  0
 22 24  1  0  0  0  0
 22 23  1  0  0  0  0
M  END
>  <MODEL>
       9

>  <COMPND>
    UNNAMED

>  <AUTHOR>
    GENERATED BY OPEN BABEL 2.4.90

>  <MASTER>
        0    0    0    0    0    0    0    0   24    0   24    0

