__2e98_A_rec_2e99_b08_lig_docked.pdb
 OpenBabel10181914303D

 29 31  0  0  0  0  0  0  0  0999 V2000
   21.8600   17.9690   27.5450 C   0  0  0  0  0  0  0  0  0  0  0  0
   22.0440   18.4960   26.2690 C   0  0  0  0  0  0  0  0  0  0  0  0
   21.8170   16.5890   27.7080 C   0  0  0  0  0  0  0  0  0  0  0  0
   21.9740   15.7460   26.6100 C   0  0  0  0  0  0  0  0  0  0  0  0
   22.1710   16.2770   25.3400 C   0  0  0  0  0  0  0  0  0  0  0  0
   22.2050   17.6580   25.1670 C   0  0  0  0  0  0  0  0  0  0  0  0
   22.3310   19.2100   31.0080 C   0  0  0  0  0  0  0  0  0  0  0  0
   22.3520   18.3850   29.8850 C   0  0  0  0  0  0  0  0  0  0  0  0
   21.7760   20.4800   30.8940 C   0  0  0  0  0  0  0  0  0  0  0  0
   21.2490   20.9080   29.6800 C   0  0  0  0  0  0  0  0  0  0  0  0
   21.2770   20.0750   28.5640 C   0  0  0  0  0  0  0  0  0  0  0  0
   21.8330   18.8060   28.6620 C   0  0  0  0  0  0  0  0  0  0  0  0
   23.9680   17.9790   32.3040 C   0  0  0  0  0  0  0  0  0  0  0  0
   24.4610   17.5290   33.5240 C   0  0  0  0  0  0  0  0  0  0  0  0
   23.8100   17.8720   34.7060 C   0  0  0  0  0  0  0  0  0  0  0  0
   22.6670   18.6620   34.6460 C   0  0  0  0  0  0  0  0  0  0  0  0
   22.1790   19.1110   33.4210 C   0  0  0  0  0  0  0  0  0  0  0  0
   22.8290   18.7750   32.2360 C   0  0  0  0  0  0  0  0  0  0  0  0
   22.5410   18.2350   23.7870 C   0  0  0  0  0  0  0  0  0  0  0  0
   21.3280   18.8230   23.0620 C   0  0  0  0  0  0  0  0  0  0  0  0
   20.5200   19.5020   24.0250 O   0  0  0  0  0  0  0  0  0  0  0  0
   21.8920   20.0920   21.8160 P   0  0  0  0  0  0  0  0  0  0  0  0
   20.7420   21.2160   21.7730 O   0  0  0  0  0  0  0  0  0  0  0  0
   23.1780   20.8320   22.4420 O   0  0  0  0  0  0  0  0  0  0  0  0
   22.1390   19.4410   20.5100 O   0  0  0  0  0  0  0  0  0  0  0  0
   20.3260   17.5570   22.1220 P   0  0  0  0  0  0  0  0  0  0  0  0
   19.2640   18.3730   21.2250 O   0  0  0  0  0  0  0  0  0  0  0  0
   21.3800   16.8290   21.1450 O   0  0  0  0  0  0  0  0  0  0  0  0
   19.6360   16.5960   23.0160 O   0  0  0  0  0  0  0  0  0  0  0  0
  1  2  2  0  0  0  0
  1  3  1  0  0  0  0
  1 12  1  0  0  0  0
  2  6  1  0  0  0  0
  3  4  2  0  0  0  0
  4  5  1  0  0  0  0
  5  6  2  0  0  0  0
  6 19  1  0  0  0  0
  7  8  2  0  0  0  0
  7  9  1  0  0  0  0
  7 18  1  0  0  0  0
  8 12  1  0  0  0  0
  9 10  2  0  0  0  0
 10 11  1  0  0  0  0
 11 12  2  0  0  0  0
 13 18  2  0  0  0  0
 13 14  1  0  0  0  0
 14 15  2  0  0  0  0
 15 16  1  0  0  0  0
 16 17  2  0  0  0  0
 17 18  1  0  0  0  0
 19 20  1  0  0  0  0
 20 22  1  0  0  0  0
 20 26  1  0  0  0  0
 20 21  1  0  0  0  0
 22 24  2  0  0  0  0
 22 25  1  0  0  0  0
 22 23  1  0  0  0  0
 26 29  2  0  0  0  0
 26 27  1  0  0  0  0
 26 28  1  0  0  0  0
M  END
>  <MODEL>
       1

>  <COMPND>
    UNNAMED

>  <AUTHOR>
    GENERATED BY OPEN BABEL 2.4.90

>  <MASTER>
        0    0    0    0    0    0    0    0   29    0   29    0

