__2e9a_A_rec_2e9a_b28_lig_docked.pdb
 OpenBabel10181914293D

 29 31  0  0  0  0  0  0  0  0999 V2000
   22.0000   18.6700   28.0520 C   0  0  0  0  0  0  0  0  0  0  0  0
   22.1330   19.3430   26.8410 C   0  0  0  0  0  0  0  0  0  0  0  0
   21.7620   17.2990   28.0600 C   0  0  0  0  0  0  0  0  0  0  0  0
   21.6650   16.6080   26.8570 C   0  0  0  0  0  0  0  0  0  0  0  0
   21.8050   17.2830   25.6480 C   0  0  0  0  0  0  0  0  0  0  0  0
   22.0450   18.6540   25.6380 C   0  0  0  0  0  0  0  0  0  0  0  0
   22.7570   20.5660   31.7040 C   0  0  0  0  0  0  0  0  0  0  0  0
   22.6380   21.3200   30.5390 C   0  0  0  0  0  0  0  0  0  0  0  0
   22.3640   20.7030   29.3220 C   0  0  0  0  0  0  0  0  0  0  0  0
   22.5880   19.1870   31.6420 C   0  0  0  0  0  0  0  0  0  0  0  0
   22.3170   18.5700   30.4260 C   0  0  0  0  0  0  0  0  0  0  0  0
   22.2080   19.3230   29.2620 C   0  0  0  0  0  0  0  0  0  0  0  0
   22.2860   22.2350   33.3770 C   0  0  0  0  0  0  0  0  0  0  0  0
   22.5640   22.8350   34.6020 C   0  0  0  0  0  0  0  0  0  0  0  0
   23.6150   22.3600   35.3790 C   0  0  0  0  0  0  0  0  0  0  0  0
   24.3840   21.2900   34.9340 C   0  0  0  0  0  0  0  0  0  0  0  0
   24.1030   20.6960   33.7070 C   0  0  0  0  0  0  0  0  0  0  0  0
   23.0550   21.1670   32.9240 C   0  0  0  0  0  0  0  0  0  0  0  0
   22.3500   19.3620   24.3160 C   0  0  0  0  0  0  0  0  0  0  0  0
   21.1180   20.0330   23.7060 C   0  0  0  0  0  0  0  0  0  0  0  0
   20.3170   20.5440   24.7740 O   0  0  0  0  0  0  0  0  0  0  0  0
   21.6650   21.4790   22.6680 P   0  0  0  0  0  0  0  0  0  0  0  0
   20.4010   22.4730   22.5850 O   0  0  0  0  0  0  0  0  0  0  0  0
   22.8130   22.2060   23.5320 O   0  0  0  0  0  0  0  0  0  0  0  0
   22.1280   21.0310   21.3340 O   0  0  0  0  0  0  0  0  0  0  0  0
   20.1790   18.8700   22.5850 P   0  0  0  0  0  0  0  0  0  0  0  0
   19.1590   19.7700   21.7210 O   0  0  0  0  0  0  0  0  0  0  0  0
   21.2590   18.2810   21.5430 O   0  0  0  0  0  0  0  0  0  0  0  0
   19.5140   17.7750   23.3300 O   0  0  0  0  0  0  0  0  0  0  0  0
  1  2  2  0  0  0  0
  1  3  1  0  0  0  0
  1 12  1  0  0  0  0
  2  6  1  0  0  0  0
  3  4  2  0  0  0  0
  4  5  1  0  0  0  0
  5  6  2  0  0  0  0
  6 19  1  0  0  0  0
  7  8  2  0  0  0  0
  7 10  1  0  0  0  0
  7 18  1  0  0  0  0
  8  9  1  0  0  0  0
  9 12  2  0  0  0  0
 10 11  2  0  0  0  0
 11 12  1  0  0  0  0
 13 18  2  0  0  0  0
 13 14  1  0  0  0  0
 14 15  2  0  0  0  0
 15 16  1  0  0  0  0
 16 17  2  0  0  0  0
 17 18  1  0  0  0  0
 19 20  1  0  0  0  0
 20 22  1  0  0  0  0
 20 26  1  0  0  0  0
 20 21  1  0  0  0  0
 22 25  2  0  0  0  0
 22 23  1  0  0  0  0
 22 24  1  0  0  0  0
 26 29  2  0  0  0  0
 26 28  1  0  0  0  0
 26 27  1  0  0  0  0
M  END
>  <MODEL>
       1

>  <COMPND>
    UNNAMED

>  <AUTHOR>
    GENERATED BY OPEN BABEL 2.4.90

>  <MASTER>
        0    0    0    0    0    0    0    0   29    0   29    0

