__2e9d_B_rec_2e9c_b75_lig_min.pdb
 OpenBabel10181914283D

 37 40  0  0  0  0  0  0  0  0999 V2000
   23.0400   19.3280   26.4270 C   0  0  0  0  0  0  0  0  0  0  0  0
   22.9240   19.3620   25.0410 C   0  0  0  0  0  0  0  0  0  0  0  0
   22.5550   18.2360   27.1350 C   0  0  0  0  0  0  0  0  0  0  0  0
   21.9710   17.1750   26.4520 C   0  0  0  0  0  0  0  0  0  0  0  0
   21.8650   17.2050   25.0640 C   0  0  0  0  0  0  0  0  0  0  0  0
   22.3430   18.3030   24.3560 C   0  0  0  0  0  0  0  0  0  0  0  0
   24.9570   21.0070   29.0430 C   0  0  0  0  0  0  0  0  0  0  0  0
   23.8930   20.3440   28.4420 C   0  0  0  0  0  0  0  0  0  0  0  0
   25.9050   21.6390   28.2430 C   0  0  0  0  0  0  0  0  0  0  0  0
   25.8060   21.6280   26.8570 C   0  0  0  0  0  0  0  0  0  0  0  0
   24.7510   20.9490   26.2610 C   0  0  0  0  0  0  0  0  0  0  0  0
   23.8150   20.2950   27.0550 C   0  0  0  0  0  0  0  0  0  0  0  0
   25.2230   20.8530   30.3370 N   0  0  0  0  0  0  0  0  0  0  0  0
   26.5280   19.9510   30.7180 S   0  0  0  0  0  0  0  0  0  0  0  0
   27.7690   20.7410   30.4300 O   0  0  0  0  0  0  0  0  0  0  0  0
   26.4980   18.7260   29.8500 O   0  0  0  0  0  0  0  0  0  0  0  0
   27.7560   18.8470   32.8790 C   0  0  0  0  0  0  0  0  0  0  0  0
   27.9650   18.7560   34.2510 C   0  0  0  0  0  0  0  0  0  0  0  0
   29.1630   18.2520   34.7430 C   0  0  0  0  0  0  0  0  0  0  0  0
   29.3890   18.2210   36.1150 C   0  0  0  0  0  0  0  0  0  0  0  0
   28.4210   18.6880   36.9940 C   0  0  0  0  0  0  0  0  0  0  0  0
   27.2210   19.1910   36.5010 C   0  0  0  0  0  0  0  0  0  0  0  0
   26.9980   19.2250   35.1310 C   0  0  0  0  0  0  0  0  0  0  0  0
   25.8200   19.7740   34.6350 C   0  0  0  0  0  0  0  0  0  0  0  0
   25.6160   19.8710   33.2640 C   0  0  0  0  0  0  0  0  0  0  0  0
   26.5910   19.4200   32.3840 C   0  0  0  0  0  0  0  0  0  0  0  0
   22.2750   18.3490   22.8290 C   0  0  0  0  0  0  0  0  0  0  0  0
   20.8990   18.8060   22.3370 C   0  0  0  0  0  0  0  0  0  0  0  0
   20.1000   19.2070   23.4530 O   0  0  0  0  0  0  0  0  0  0  0  0
   21.1190   20.2870   21.2260 P   0  0  0  0  0  0  0  0  0  0  0  0
   22.2280   19.8720   20.1360 O   0  0  0  0  0  0  0  0  0  0  0  0
   19.7250   20.4600   20.4430 O   0  0  0  0  0  0  0  0  0  0  0  0
   21.4880   21.5070   21.9730 O   0  0  0  0  0  0  0  0  0  0  0  0
   20.0600   17.4290   21.3970 P   0  0  0  0  0  0  0  0  0  0  0  0
   21.0780   16.9980   20.2250 O   0  0  0  0  0  0  0  0  0  0  0  0
   19.9470   16.1820   22.4090 O   0  0  0  0  0  0  0  0  0  0  0  0
   18.7380   17.8380   20.8720 O   0  0  0  0  0  0  0  0  0  0  0  0
  1  2  2  0  0  0  0
  1  3  1  0  0  0  0
  1 12  1  0  0  0  0
  2  6  1  0  0  0  0
  3  4  2  0  0  0  0
  4  5  1  0  0  0  0
  5  6  2  0  0  0  0
  6 27  1  0  0  0  0
  7  8  2  0  0  0  0
  7  9  1  0  0  0  0
  7 13  1  0  0  0  0
  8 12  1  0  0  0  0
  9 10  2  0  0  0  0
 10 11  1  0  0  0  0
 11 12  2  0  0  0  0
 13 14  1  0  0  0  0
 14 16  2  0  0  0  0
 14 15  2  0  0  0  0
 14 26  1  0  0  0  0
 17 26  2  0  0  0  0
 17 18  1  0  0  0  0
 18 19  2  0  0  0  0
 18 23  1  0  0  0  0
 19 20  1  0  0  0  0
 20 21  2  0  0  0  0
 21 22  1  0  0  0  0
 22 23  2  0  0  0  0
 23 24  1  0  0  0  0
 24 25  2  0  0  0  0
 25 26  1  0  0  0  0
 27 28  1  0  0  0  0
 28 30  1  0  0  0  0
 28 34  1  0  0  0  0
 28 29  1  0  0  0  0
 30 31  2  0  0  0  0
 30 32  1  0  0  0  0
 30 33  1  0  0  0  0
 34 35  2  0  0  0  0
 34 37  1  0  0  0  0
 34 36  1  0  0  0  0
M  END
>  <COMPND>
    UNNAMED

>  <AUTHOR>
    GENERATED BY OPEN BABEL 2.4.90

>  <MASTER>
        0    0    0    0    0    0    0    0   37    0   37    0

