__3sgt_B_rec_3sgt_p09_lig_docked.pdb
 OpenBabel10181914343D

 27 29  0  0  0  0  0  0  0  0999 V2000
   29.0080   18.8320   29.5930 C   0  0  0  0  0  0  0  0  0  0  0  0
   27.5840   20.7200   29.1390 C   0  0  0  0  0  0  0  0  0  0  0  0
   28.0950   18.3940   30.5790 C   0  0  0  0  0  0  0  0  0  0  0  0
   26.6810   20.2880   30.1040 C   0  0  0  0  0  0  0  0  0  0  0  0
   28.7470   19.9940   28.8600 C   0  0  0  0  0  0  0  0  0  0  0  0
   26.9500   19.1390   30.8460 C   0  0  0  0  0  0  0  0  0  0  0  0
   30.6440   18.4700   27.4580 O   0  0  0  0  0  0  0  0  0  0  0  0
   29.6390   20.4770   27.9520 N   0  0  0  0  0  0  0  0  0  0  0  0
   30.5430   19.7080   27.3470 C   0  0  0  0  0  0  0  0  0  0  0  0
   33.4380   21.7290   24.8960 C   0  0  0  0  0  0  0  0  0  0  0  0
   33.2190   22.1400   26.2130 C   0  0  0  0  0  0  0  0  0  0  0  0
   32.7310   20.6660   24.3390 C   0  0  0  0  0  0  0  0  0  0  0  0
   32.2700   21.4730   26.9620 C   0  0  0  0  0  0  0  0  0  0  0  0
   31.7750   19.9890   25.1230 C   0  0  0  0  0  0  0  0  0  0  0  0
   31.5410   20.4270   26.4180 C   0  0  0  0  0  0  0  0  0  0  0  0
   29.8820   19.1290   23.9990 O   0  0  0  0  0  0  0  0  0  0  0  0
   31.4100   17.6320   24.6260 O   0  0  0  0  0  0  0  0  0  0  0  0
   30.9750   18.8180   24.5070 C   0  0  0  0  0  0  0  0  0  0  0  0
   26.0210   18.7310   31.7680 O   0  0  0  0  0  0  0  0  0  0  0  0
   26.9620   17.4440   37.2240 C   0  0  0  0  0  0  0  0  0  0  0  0
   29.0170   19.1240   35.6640 C   0  0  0  0  0  0  0  0  0  0  0  0
   25.6450   17.3980   35.0950 C   0  0  0  0  0  0  0  0  0  0  0  0
   25.4100   17.7150   33.7710 C   0  0  0  0  0  0  0  0  0  0  0  0
   27.5030   18.9380   33.6730 C   0  0  0  0  0  0  0  0  0  0  0  0
   26.8010   17.8470   35.7390 C   0  0  0  0  0  0  0  0  0  0  0  0
   27.7220   18.6320   35.0300 C   0  0  0  0  0  0  0  0  0  0  0  0
   26.3440   18.4990   33.0650 C   0  0  0  0  0  0  0  0  0  0  0  0
  1  5  2  0  0  0  0
  1  3  1  0  0  0  0
  2  5  1  0  0  0  0
  2  4  2  0  0  0  0
  3  6  2  0  0  0  0
  4  6  1  0  0  0  0
  5  8  1  0  0  0  0
  6 19  1  0  0  0  0
  7  9  2  0  0  0  0
  8  9  1  0  0  0  0
  9 15  1  0  0  0  0
 10 12  2  0  0  0  0
 10 11  1  0  0  0  0
 11 13  2  0  0  0  0
 12 14  1  0  0  0  0
 13 15  1  0  0  0  0
 14 18  1  0  0  0  0
 14 15  2  0  0  0  0
 16 18  2  0  0  0  0
 17 18  1  0  0  0  0
 19 27  1  0  0  0  0
 20 25  1  0  0  0  0
 21 26  1  0  0  0  0
 22 23  2  0  0  0  0
 22 25  1  0  0  0  0
 23 27  1  0  0  0  0
 24 27  2  0  0  0  0
 24 26  1  0  0  0  0
 25 26  2  0  0  0  0
M  END
>  <MODEL>
       1

>  <COMPND>
    UNNAMED

>  <AUTHOR>
    GENERATED BY OPEN BABEL 2.4.90

>  <MASTER>
        0    0    0    0    0    0    0    0   27    0   27    0

