__3sgv_A_rec_3sgv_2bj_lig_min.pdb
 OpenBabel10181914283D

 30 32  0  0  0  0  0  0  0  0999 V2000
   21.5880   15.7160   25.1240 N   0  0  0  0  0  0  0  0  0  0  0  0
   21.2150   17.4400   23.5100 O   0  0  0  0  0  0  0  0  0  0  0  0
   21.3910   16.2290   23.8700 C   0  0  0  0  0  0  0  0  0  0  0  0
   21.5990   15.1980   22.7480 C   0  0  0  0  0  0  0  0  0  0  0  0
   21.1120   15.3900   21.4820 C   0  0  0  0  0  0  0  0  0  0  0  0
   21.4120   14.4360   20.5090 C   0  0  0  0  0  0  0  0  0  0  0  0
   22.2190   13.3580   20.7750 C   0  0  0  0  0  0  0  0  0  0  0  0
   22.6950   13.1640   22.0680 C   0  0  0  0  0  0  0  0  0  0  0  0
   22.3950   14.0950   23.0240 C   0  0  0  0  0  0  0  0  0  0  0  0
   19.0630   16.4800   21.6970 O   0  0  0  0  0  0  0  0  0  0  0  0
   20.4430   17.2930   20.1920 O   0  0  0  0  0  0  0  0  0  0  0  0
   20.1780   16.5240   21.1290 C   0  0  0  0  0  0  0  0  0  0  0  0
   23.4810   12.0790   22.4010 N   0  0  0  0  0  0  0  0  0  0  0  0
   23.9130   11.2620   21.4640 O   0  0  0  0  0  0  0  0  0  0  0  0
   23.9620   11.9010   23.7390 O   0  0  0  0  0  0  0  0  0  0  0  0
   21.7580   16.4800   26.2570 C   0  0  0  0  0  0  0  0  0  0  0  0
   21.2290   16.0110   27.4810 C   0  0  0  0  0  0  0  0  0  0  0  0
   21.4140   16.6440   28.7170 C   0  0  0  0  0  0  0  0  0  0  0  0
   22.1010   17.8660   28.7230 C   0  0  0  0  0  0  0  0  0  0  0  0
   22.5550   18.4010   27.5020 C   0  0  0  0  0  0  0  0  0  0  0  0
   22.4550   17.7250   26.2830 C   0  0  0  0  0  0  0  0  0  0  0  0
   23.3110   19.5640   27.4880 O   0  0  0  0  0  0  0  0  0  0  0  0
   23.2630   20.4190   28.5100 C   0  0  0  0  0  0  0  0  0  0  0  0
   22.0720   21.0990   28.8420 C   0  0  0  0  0  0  0  0  0  0  0  0
   22.0320   21.9910   29.9440 C   0  0  0  0  0  0  0  0  0  0  0  0
   23.2320   22.1580   30.6720 C   0  0  0  0  0  0  0  0  0  0  0  0
   23.2040   23.1550   31.8660 C   0  0  0  0  0  0  0  0  0  0  0  0
   24.3880   21.4840   30.3120 C   0  0  0  0  0  0  0  0  0  0  0  0
   25.7390   21.6370   31.0960 C   0  0  0  0  0  0  0  0  0  0  0  0
   24.4230   20.6160   29.2240 C   0  0  0  0  0  0  0  0  0  0  0  0
  1  3  1  0  0  0  0
  1 16  1  0  0  0  0
  2  3  2  0  0  0  0
  3  4  1  0  0  0  0
  4  5  2  0  0  0  0
  4  9  1  0  0  0  0
  5  6  1  0  0  0  0
  5 12  1  0  0  0  0
  6  7  2  0  0  0  0
  7  8  1  0  0  0  0
  8 13  1  0  0  0  0
  8  9  2  0  0  0  0
 10 12  2  0  0  0  0
 11 12  1  0  0  0  0
 13 14  2  0  0  0  0
 13 15  2  0  0  0  0
 16 21  2  0  0  0  0
 16 17  1  0  0  0  0
 17 18  2  0  0  0  0
 18 19  1  0  0  0  0
 19 20  2  0  0  0  0
 20 21  1  0  0  0  0
 20 22  1  0  0  0  0
 22 23  1  0  0  0  0
 23 24  2  0  0  0  0
 23 30  1  0  0  0  0
 24 25  1  0  0  0  0
 25 26  2  0  0  0  0
 26 28  1  0  0  0  0
 26 27  1  0  0  0  0
 28 30  2  0  0  0  0
 28 29  1  0  0  0  0
M  END
>  <COMPND>
    UNNAMED

>  <AUTHOR>
    GENERATED BY OPEN BABEL 2.4.90

>  <MASTER>
        0    0    0    0    0    0    0    0   30    0   30    0

