__3sh0_A_rec_4h2m_0yv_lig_min.pdb
 OpenBabel10181914273D

 30 32  0  0  0  0  0  0  0  0999 V2000
   23.4100   18.5190   37.8810 C   0  0  0  0  0  0  0  0  0  0  0  0
   22.6220   18.1120   38.9340 C   0  0  0  0  0  0  0  0  0  0  0  0
   24.4950   17.7740   37.4980 C   0  0  0  0  0  0  0  0  0  0  0  0
   24.7860   16.6160   38.1500 C   0  0  0  0  0  0  0  0  0  0  0  0
   24.0010   16.2280   39.1880 C   0  0  0  0  0  0  0  0  0  0  0  0
   22.9360   16.9310   39.5850 C   0  0  0  0  0  0  0  0  0  0  0  0
   23.0570   20.7350   36.3190 C   0  0  0  0  0  0  0  0  0  0  0  0
   23.2480   19.6630   37.1380 C   0  0  0  0  0  0  0  0  0  0  0  0
   22.1340   24.1040   35.1130 C   0  0  0  0  0  0  0  0  0  0  0  0
   22.3500   23.0510   35.9730 C   0  0  0  0  0  0  0  0  0  0  0  0
   22.3940   23.9990   33.7350 C   0  0  0  0  0  0  0  0  0  0  0  0
   22.8720   22.8020   33.2300 C   0  0  0  0  0  0  0  0  0  0  0  0
   23.2520   22.5070   31.4500 Br  0  0  0  0  0  0  0  0  0  0  0  0
   23.0880   21.7560   34.1080 C   0  0  0  0  0  0  0  0  0  0  0  0
   22.8330   21.8540   35.4620 C   0  0  0  0  0  0  0  0  0  0  0  0
   21.6570   25.2910   35.6750 C   0  0  0  0  0  0  0  0  0  0  0  0
   19.1760   24.7220   35.8930 N   0  0  0  0  0  0  0  0  0  0  0  0
   20.1910   25.6080   35.2510 C   0  0  0  0  0  0  0  0  0  0  0  0
   22.2470   16.4380   40.6430 C   0  0  0  0  0  0  0  0  0  0  0  0
   21.8640   16.1590   41.2280 C   0  0  0  0  0  0  0  0  0  0  0  0
   21.0290   15.5900   42.4800 C   0  0  0  0  0  0  0  0  0  0  0  0
   20.1150   16.4290   43.1390 C   0  0  0  0  0  0  0  0  0  0  0  0
   21.2480   14.3050   42.9960 C   0  0  0  0  0  0  0  0  0  0  0  0
   20.5580   13.7550   44.0780 C   0  0  0  0  0  0  0  0  0  0  0  0
   20.8340   12.0400   44.7670 Br  0  0  0  0  0  0  0  0  0  0  0  0
   19.6530   14.5930   44.6670 C   0  0  0  0  0  0  0  0  0  0  0  0
   19.4130   15.9070   44.2380 C   0  0  0  0  0  0  0  0  0  0  0  0
   18.4680   16.6750   44.9420 C   0  0  0  0  0  0  0  0  0  0  0  0
   17.3310   17.1300   44.0460 C   0  0  0  0  0  0  0  0  0  0  0  0
   16.3590   16.0530   43.8240 N   0  0  0  0  0  0  0  0  0  0  0  0
  1  8  1  0  0  0  0
  1  3  2  0  0  0  0
  1  2  1  0  0  0  0
  2  6  2  0  0  0  0
  3  4  1  0  0  0  0
  4  5  2  0  0  0  0
  5  6  1  0  0  0  0
  6 19  1  0  0  0  0
  7 15  1  0  0  0  0
  7  8  3  0  0  0  0
  9 11  2  0  0  0  0
  9 16  1  0  0  0  0
  9 10  1  0  0  0  0
 10 15  2  0  0  0  0
 11 12  1  0  0  0  0
 12 13  1  0  0  0  0
 12 14  2  0  0  0  0
 14 15  1  0  0  0  0
 16 18  1  0  0  0  0
 17 18  1  0  0  0  0
 19 20  3  0  0  0  0
 20 21  1  0  0  0  0
 21 23  2  0  0  0  0
 21 22  1  0  0  0  0
 22 27  2  0  0  0  0
 23 24  1  0  0  0  0
 24 25  1  0  0  0  0
 24 26  2  0  0  0  0
 26 27  1  0  0  0  0
 27 28  1  0  0  0  0
 28 29  1  0  0  0  0
 29 30  1  0  0  0  0
M  END
>  <COMPND>
    UNNAMED

>  <AUTHOR>
    GENERATED BY OPEN BABEL 2.4.90

>  <MASTER>
        0    0    0    0    0    0    0    0   30    0   30    0

