__3sh0_B_rec_3sh0_sax_lig_min.pdb
 OpenBabel10181914263D

 23 23  0  0  0  0  0  0  0  0999 V2000
   30.9410   19.8250   26.9950 O   0  0  0  0  0  0  0  0  0  0  0  0
   32.6110   20.3020   25.3170 C   0  0  0  0  0  0  0  0  0  0  0  0
   34.2640   20.8110   23.7040 O   0  0  0  0  0  0  0  0  0  0  0  0
   33.6930   21.0750   24.9280 C   0  0  0  0  0  0  0  0  0  0  0  0
   34.1610   22.0930   25.7560 C   0  0  0  0  0  0  0  0  0  0  0  0
   33.5710   22.3630   27.0020 C   0  0  0  0  0  0  0  0  0  0  0  0
   32.4890   21.5740   27.4070 C   0  0  0  0  0  0  0  0  0  0  0  0
   32.0180   20.5500   26.5620 C   0  0  0  0  0  0  0  0  0  0  0  0
   31.5570   18.2170   24.8470 O   0  0  0  0  0  0  0  0  0  0  0  0
   32.5440   19.2660   23.1400 O   0  0  0  0  0  0  0  0  0  0  0  0
   32.1890   19.2110   24.3690 C   0  0  0  0  0  0  0  0  0  0  0  0
   30.6070   19.8980   28.4000 C   0  0  0  0  0  0  0  0  0  0  0  0
   29.1150   19.6990   28.5260 C   0  0  0  0  0  0  0  0  0  0  0  0
   28.6950   19.6840   29.9760 C   0  0  0  0  0  0  0  0  0  0  0  0
   27.8170   18.4810   30.2220 C   0  0  0  0  0  0  0  0  0  0  0  0
   26.8770   18.8200   31.3650 C   0  0  0  0  0  0  0  0  0  0  0  0
   25.5460   18.1030   31.0980 C   0  0  0  0  0  0  0  0  0  0  0  0
   24.4940   18.3690   32.1820 C   0  0  0  0  0  0  0  0  0  0  0  0
   24.5530   19.8090   32.6720 C   0  0  0  0  0  0  0  0  0  0  0  0
   23.2730   20.4900   33.1450 C   0  0  0  0  0  0  0  0  0  0  0  0
   22.6930   19.7500   34.3380 C   0  0  0  0  0  0  0  0  0  0  0  0
   22.4400   20.5420   35.6300 C   0  0  0  0  0  0  0  0  0  0  0  0
   21.5750   19.6600   36.5370 C   0  0  0  0  0  0  0  0  0  0  0  0
  1  8  1  0  0  0  0
  1 12  1  0  0  0  0
  2 11  1  0  0  0  0
  2  4  2  0  0  0  0
  2  8  1  0  0  0  0
  3  4  1  0  0  0  0
  4  5  1  0  0  0  0
  5  6  2  0  0  0  0
  6  7  1  0  0  0  0
  7  8  2  0  0  0  0
  9 11  2  0  0  0  0
 10 11  1  0  0  0  0
 12 13  1  0  0  0  0
 13 14  1  0  0  0  0
 14 15  1  0  0  0  0
 15 16  1  0  0  0  0
 16 17  1  0  0  0  0
 17 18  1  0  0  0  0
 18 19  1  0  0  0  0
 19 20  1  0  0  0  0
 20 21  1  0  0  0  0
 21 22  1  0  0  0  0
 22 23  1  0  0  0  0
M  END
>  <COMPND>
    UNNAMED

>  <AUTHOR>
    GENERATED BY OPEN BABEL 2.4.90

>  <MASTER>
        0    0    0    0    0    0    0    0   23    0   23    0

