__4h3c_B_rec_4h2m_0yv_lig_min.pdb
 OpenBabel10181914263D

 30 32  0  0  0  0  0  0  0  0999 V2000
   22.9180   18.1230   38.0970 C   0  0  0  0  0  0  0  0  0  0  0  0
   22.1740   17.7500   39.1930 C   0  0  0  0  0  0  0  0  0  0  0  0
   23.9330   17.3230   37.6420 C   0  0  0  0  0  0  0  0  0  0  0  0
   24.1970   16.1420   38.2660 C   0  0  0  0  0  0  0  0  0  0  0  0
   23.4560   15.7890   39.3480 C   0  0  0  0  0  0  0  0  0  0  0  0
   22.4600   16.5460   39.8160 C   0  0  0  0  0  0  0  0  0  0  0  0
   22.6410   20.3720   36.5680 C   0  0  0  0  0  0  0  0  0  0  0  0
   22.7760   19.2820   37.3730 C   0  0  0  0  0  0  0  0  0  0  0  0
   21.8300   23.7710   35.3650 C   0  0  0  0  0  0  0  0  0  0  0  0
   21.9860   22.7030   36.2200 C   0  0  0  0  0  0  0  0  0  0  0  0
   22.1600   23.6820   34.0010 C   0  0  0  0  0  0  0  0  0  0  0  0
   22.6460   22.4850   33.5040 C   0  0  0  0  0  0  0  0  0  0  0  0
   23.1150   22.2090   31.7410 Br  0  0  0  0  0  0  0  0  0  0  0  0
   22.8020   21.4240   34.3760 C   0  0  0  0  0  0  0  0  0  0  0  0
   22.4780   21.5060   35.7160 C   0  0  0  0  0  0  0  0  0  0  0  0
   21.3410   24.9570   35.9190 C   0  0  0  0  0  0  0  0  0  0  0  0
   19.3390   26.5380   36.0410 N   0  0  0  0  0  0  0  0  0  0  0  0
   19.8700   25.2540   35.4970 C   0  0  0  0  0  0  0  0  0  0  0  0
   21.8100   16.0810   40.9100 C   0  0  0  0  0  0  0  0  0  0  0  0
   21.4500   15.8180   41.5170 C   0  0  0  0  0  0  0  0  0  0  0  0
   20.6590   15.2800   42.8110 C   0  0  0  0  0  0  0  0  0  0  0  0
   19.7770   16.1380   43.4870 C   0  0  0  0  0  0  0  0  0  0  0  0
   20.8890   14.0040   43.3430 C   0  0  0  0  0  0  0  0  0  0  0  0
   20.2380   13.4810   44.4610 C   0  0  0  0  0  0  0  0  0  0  0  0
   20.5290   11.7770   45.1740 Br  0  0  0  0  0  0  0  0  0  0  0  0
   19.3620   14.3360   45.0680 C   0  0  0  0  0  0  0  0  0  0  0  0
   19.1140   15.6430   44.6220 C   0  0  0  0  0  0  0  0  0  0  0  0
   18.2020   16.4320   45.3460 C   0  0  0  0  0  0  0  0  0  0  0  0
   17.0270   16.8640   44.4900 C   0  0  0  0  0  0  0  0  0  0  0  0
   16.1920   15.7190   44.1080 N   0  0  0  0  0  0  0  0  0  0  0  0
  1  8  1  0  0  0  0
  1  3  2  0  0  0  0
  1  2  1  0  0  0  0
  2  6  2  0  0  0  0
  3  4  1  0  0  0  0
  4  5  2  0  0  0  0
  5  6  1  0  0  0  0
  6 19  1  0  0  0  0
  7 15  1  0  0  0  0
  7  8  3  0  0  0  0
  9 11  2  0  0  0  0
  9 16  1  0  0  0  0
  9 10  1  0  0  0  0
 10 15  2  0  0  0  0
 11 12  1  0  0  0  0
 12 13  1  0  0  0  0
 12 14  2  0  0  0  0
 14 15  1  0  0  0  0
 16 18  1  0  0  0  0
 17 18  1  0  0  0  0
 19 20  3  0  0  0  0
 20 21  1  0  0  0  0
 21 23  2  0  0  0  0
 21 22  1  0  0  0  0
 22 27  2  0  0  0  0
 23 24  1  0  0  0  0
 24 25  1  0  0  0  0
 24 26  2  0  0  0  0
 26 27  1  0  0  0  0
 27 28  1  0  0  0  0
 28 29  1  0  0  0  0
 29 30  1  0  0  0  0
M  END
>  <COMPND>
    UNNAMED

>  <AUTHOR>
    GENERATED BY OPEN BABEL 2.4.90

>  <MASTER>
        0    0    0    0    0    0    0    0   30    0   30    0

