__2iul_A_rec_4ca5_3ef_lig_min.pdb
 OpenBabel10171921043D

 51 55  0  0  1  0  0  0  0  0999 V2000
  -14.2620   -7.9760   21.0480 C   0  0  2  0  0  0  0  0  0  0  0  0
  -13.2540   -7.8910   23.2370 N   0  0  0  0  0  0  0  0  0  0  0  0
  -11.9190   -7.5400   21.4380 O   0  0  0  0  0  0  0  0  0  0  0  0
  -13.0300   -7.7720   21.9250 C   0  0  0  0  0  0  0  0  0  0  0  0
  -12.1540   -7.8200   24.1910 C   0  0  2  0  0  0  0  0  0  0  0  0
  -11.6240   -9.2530   24.4590 C   0  0  0  0  0  0  0  0  0  0  0  0
  -10.6330   -9.3540   25.2020 O   0  0  0  0  0  0  0  0  0  0  0  0
  -12.1940  -10.2200   23.8780 O   0  0  0  0  0  0  0  0  0  0  0  0
  -12.5980   -7.1370   25.4970 C   0  0  0  0  0  0  0  0  0  0  0  0
  -13.9430   -7.1270   25.8770 C   0  0  0  0  0  0  0  0  0  0  0  0
  -17.9370   -7.0050   27.0940 O   0  0  0  0  0  0  0  0  0  0  0  0
  -16.6280   -7.0440   26.6910 C   0  0  0  0  0  0  0  0  0  0  0  0
  -14.3540   -7.8430   27.0050 C   0  0  0  0  0  0  0  0  0  0  0  0
  -14.8780   -6.3530   25.1670 C   0  0  0  0  0  0  0  0  0  0  0  0
  -15.6970   -7.8110   27.4060 C   0  0  0  0  0  0  0  0  0  0  0  0
  -16.2170   -6.3210   25.5720 C   0  0  0  0  0  0  0  0  0  0  0  0
  -14.7890   -9.4050   21.3130 C   0  0  0  0  0  0  0  0  0  0  0  0
  -15.4150  -10.2500   23.6650 C   0  0  0  0  0  0  0  0  0  0  0  0
  -17.2730   -9.1630   24.0370 N   0  0  0  0  0  0  0  0  0  0  0  0
  -16.8070   -8.7770   22.7300 O   0  0  0  0  0  0  0  0  0  0  0  0
  -15.6610   -9.4890   22.5760 C   0  0  0  0  0  0  0  0  0  0  0  0
  -16.4040  -10.0290   24.5430 C   0  0  0  0  0  0  0  0  0  0  0  0
  -17.0620  -11.8550   28.2440 C   0  0  0  0  0  0  0  0  0  0  0  0
  -18.0740  -11.1050   27.6310 C   0  0  0  0  0  0  0  0  0  0  0  0
  -15.8210  -11.9900   27.6110 C   0  0  0  0  0  0  0  0  0  0  0  0
  -17.8410  -10.4900   26.3920 C   0  0  0  0  0  0  0  0  0  0  0  0
  -15.5980  -11.3700   26.3720 C   0  0  0  0  0  0  0  0  0  0  0  0
  -16.5950  -10.6030   25.7590 C   0  0  0  0  0  0  0  0  0  0  0  0
  -13.8170   -7.9260   19.5890 C   0  0  0  0  0  0  0  0  0  0  0  0
  -13.4760   -5.2760   19.9310 O   0  0  0  0  0  0  0  0  0  0  0  0
  -15.3470   -6.0980   18.4620 O   0  0  0  0  0  0  0  0  0  0  0  0
  -13.9530   -6.2680   18.9390 P   0  0  2  0  0  0  0  0  0  0  0  0
  -12.8840   -6.2010   17.4620 C   0  0  1  0  0  0  0  0  0  0  0  0
  -14.4310   -5.1320   15.3870 O   0  0  0  0  0  0  0  0  0  0  0  0
  -12.9420   -4.7960   17.0340 N   0  0  0  0  0  0  0  0  0  0  0  0
  -13.6920   -4.3580   16.0160 C   0  0  0  0  0  0  0  0  0  0  0  0
  -13.6100   -3.0390   15.7230 O   0  0  0  0  0  0  0  0  0  0  0  0
  -14.8160   -2.3530   15.2870 C   0  0  0  0  0  0  0  0  0  0  0  0
  -13.6940    0.7150   12.5920 C   0  0  0  0  0  0  0  0  0  0  0  0
  -13.5500   -0.6250   12.2360 C   0  0  0  0  0  0  0  0  0  0  0  0
  -14.2120    1.0370   13.8400 C   0  0  0  0  0  0  0  0  0  0  0  0
  -13.9110   -1.6400   13.1280 C   0  0  0  0  0  0  0  0  0  0  0  0
  -14.5830    0.0200   14.7340 C   0  0  0  0  0  0  0  0  0  0  0  0
  -14.4370   -1.3240   14.3810 C   0  0  0  0  0  0  0  0  0  0  0  0
  -11.4000   -6.5350   17.7240 C   0  0  0  0  0  0  0  0  0  0  0  0
   -9.4250   -7.3340   14.0460 C   0  0  0  0  0  0  0  0  0  0  0  0
  -10.1610   -8.3360   14.6930 C   0  0  0  0  0  0  0  0  0  0  0  0
   -9.3500   -6.0510   14.6120 C   0  0  0  0  0  0  0  0  0  0  0  0
  -10.8080   -8.0550   15.9040 C   0  0  0  0  0  0  0  0  0  0  0  0
   -9.9880   -5.7900   15.8330 C   0  0  0  0  0  0  0  0  0  0  0  0
  -10.7250   -6.7930   16.4950 C   0  0  0  0  0  0  0  0  0  0  0  0
  1 29  1  6  0  0  0
  1 17  1  0  0  0  0
  1  4  1  0  0  0  0
  2  4  1  0  0  0  0
  2  5  1  0  0  0  0
  3  4  2  0  0  0  0
  5  6  1  0  0  0  0
  5  9  1  1  0  0  0
  6  8  2  0  0  0  0
  6  7  1  0  0  0  0
  9 10  1  0  0  0  0
 10 14  2  0  0  0  0
 10 13  1  0  0  0  0
 11 12  1  0  0  0  0
 12 16  2  0  0  0  0
 12 15  1  0  0  0  0
 13 15  2  0  0  0  0
 14 16  1  0  0  0  0
 17 21  1  0  0  0  0
 18 21  2  0  0  0  0
 18 22  1  0  0  0  0
 19 20  1  0  0  0  0
 19 22  2  0  0  0  0
 20 21  1  0  0  0  0
 22 28  1  0  0  0  0
 23 25  2  0  0  0  0
 23 24  1  0  0  0  0
 24 26  2  0  0  0  0
 25 27  1  0  0  0  0
 26 28  1  0  0  0  0
 27 28  2  0  0  0  0
 29 32  1  0  0  0  0
 31 32  1  0  0  0  0
 32 30  2  1  0  0  0
 32 33  1  0  0  0  0
 33 35  1  0  0  0  0
 33 45  1  1  0  0  0
 34 36  2  0  0  0  0
 35 36  1  0  0  0  0
 36 37  1  0  0  0  0
 37 38  1  0  0  0  0
 38 44  1  0  0  0  0
 39 40  2  0  0  0  0
 39 41  1  0  0  0  0
 40 42  1  0  0  0  0
 41 43  2  0  0  0  0
 42 44  2  0  0  0  0
 43 44  1  0  0  0  0
 45 51  1  0  0  0  0
 46 47  2  0  0  0  0
 46 48  1  0  0  0  0
 47 49  1  0  0  0  0
 48 50  2  0  0  0  0
 49 51  2  0  0  0  0
 50 51  1  0  0  0  0
M  END
>  <COMPND>
    UNNAMED

>  <AUTHOR>
    GENERATED BY OPEN BABEL 2.4.90

>  <MASTER>
        0    0    0    0    0    0    0    0   51    0   51    0

