__2iux_A_rec_4ca5_3ef_lig_docked.pdb
 OpenBabel10171921053D

 51 55  0  0  1  0  0  0  0  0999 V2000
  -14.2440   -8.0750   21.0130 C   0  0  2  0  0  0  0  0  0  0  0  0
  -13.2350   -7.9000   23.1950 N   0  0  0  0  0  0  0  0  0  0  0  0
  -11.8660   -7.8870   21.3880 O   0  0  0  0  0  0  0  0  0  0  0  0
  -12.9960   -7.9370   21.8820 C   0  0  0  0  0  0  0  0  0  0  0  0
  -12.1350   -7.8690   24.1520 C   0  0  2  0  0  0  0  0  0  0  0  0
  -11.6240   -9.3160   24.3810 C   0  0  0  0  0  0  0  0  0  0  0  0
  -12.0230  -10.1840   23.5860 O   0  0  0  0  0  0  0  0  0  0  0  0
  -10.8800   -9.5360   25.3790 O   0  0  0  0  0  0  0  0  0  0  0  0
  -12.5710   -7.2170   25.4760 C   0  0  0  0  0  0  0  0  0  0  0  0
  -13.9090   -7.2410   25.8780 C   0  0  0  0  0  0  0  0  0  0  0  0
  -17.8850   -7.2170   27.1580 O   0  0  0  0  0  0  0  0  0  0  0  0
  -16.5820   -7.2240   26.7350 C   0  0  0  0  0  0  0  0  0  0  0  0
  -14.2790   -7.9440   27.0280 C   0  0  0  0  0  0  0  0  0  0  0  0
  -14.8790   -6.5140   25.1660 C   0  0  0  0  0  0  0  0  0  0  0  0
  -15.6160   -7.9440   27.4510 C   0  0  0  0  0  0  0  0  0  0  0  0
  -16.2120   -6.5140   25.5930 C   0  0  0  0  0  0  0  0  0  0  0  0
  -14.8070   -9.4980   21.2320 C   0  0  0  0  0  0  0  0  0  0  0  0
  -15.1800  -10.4600   23.5930 C   0  0  0  0  0  0  0  0  0  0  0  0
  -16.9790   -9.3890   24.2200 N   0  0  0  0  0  0  0  0  0  0  0  0
  -16.6540   -8.9380   22.8910 O   0  0  0  0  0  0  0  0  0  0  0  0
  -15.5370   -9.6430   22.5770 C   0  0  0  0  0  0  0  0  0  0  0  0
  -16.0660  -10.2810   24.5840 C   0  0  0  0  0  0  0  0  0  0  0  0
  -16.1880  -12.1680   28.3100 C   0  0  0  0  0  0  0  0  0  0  0  0
  -15.0060  -12.1520   27.5580 C   0  0  0  0  0  0  0  0  0  0  0  0
  -17.3360  -11.5490   27.8050 C   0  0  0  0  0  0  0  0  0  0  0  0
  -14.9770  -11.5220   26.3060 C   0  0  0  0  0  0  0  0  0  0  0  0
  -17.2980  -10.9230   26.5500 C   0  0  0  0  0  0  0  0  0  0  0  0
  -16.1280  -10.9160   25.7820 C   0  0  0  0  0  0  0  0  0  0  0  0
  -13.8150   -7.9830   19.5510 C   0  0  0  0  0  0  0  0  0  0  0  0
  -13.3710   -5.3640   19.9980 O   0  0  0  0  0  0  0  0  0  0  0  0
  -15.2790   -6.0540   18.5080 O   0  0  0  0  0  0  0  0  0  0  0  0
  -13.8900   -6.2960   18.9700 P   0  0  2  0  0  0  0  0  0  0  0  0
  -12.8260   -6.2090   17.4900 C   0  0  1  0  0  0  0  0  0  0  0  0
  -14.3450   -4.8950   15.5380 O   0  0  0  0  0  0  0  0  0  0  0  0
  -12.7880   -4.7790   17.1530 N   0  0  0  0  0  0  0  0  0  0  0  0
  -13.5300   -4.2210   16.1890 C   0  0  0  0  0  0  0  0  0  0  0  0
  -13.3560   -2.8960   15.9760 O   0  0  0  0  0  0  0  0  0  0  0  0
  -14.4870   -2.1190   15.4960 C   0  0  0  0  0  0  0  0  0  0  0  0
  -13.3650   -0.2520   11.8640 C   0  0  0  0  0  0  0  0  0  0  0  0
  -13.4890   -1.6390   11.9360 C   0  0  0  0  0  0  0  0  0  0  0  0
  -13.6170    0.5150   12.9950 C   0  0  0  0  0  0  0  0  0  0  0  0
  -13.8500   -2.2590   13.1370 C   0  0  0  0  0  0  0  0  0  0  0  0
  -13.9870   -0.1040   14.1990 C   0  0  0  0  0  0  0  0  0  0  0  0
  -14.1090   -1.4940   14.2760 C   0  0  0  0  0  0  0  0  0  0  0  0
  -11.3690   -6.6620   17.7160 C   0  0  0  0  0  0  0  0  0  0  0  0
   -9.4120   -7.1780   13.9790 C   0  0  0  0  0  0  0  0  0  0  0  0
  -10.1150   -8.2380   14.5690 C   0  0  0  0  0  0  0  0  0  0  0  0
   -9.3640   -5.9310   14.6230 C   0  0  0  0  0  0  0  0  0  0  0  0
  -10.7560   -8.0500   15.8000 C   0  0  0  0  0  0  0  0  0  0  0  0
   -9.9960   -5.7640   15.8640 C   0  0  0  0  0  0  0  0  0  0  0  0
  -10.7000   -6.8250   16.4680 C   0  0  0  0  0  0  0  0  0  0  0  0
  1 29  1  6  0  0  0
  1 17  1  0  0  0  0
  1  4  1  0  0  0  0
  2  4  1  0  0  0  0
  2  5  1  0  0  0  0
  3  4  2  0  0  0  0
  5  6  1  0  0  0  0
  5  9  1  1  0  0  0
  6  8  2  0  0  0  0
  6  7  1  0  0  0  0
  9 10  1  0  0  0  0
 10 14  2  0  0  0  0
 10 13  1  0  0  0  0
 11 12  1  0  0  0  0
 12 16  2  0  0  0  0
 12 15  1  0  0  0  0
 13 15  2  0  0  0  0
 14 16  1  0  0  0  0
 17 21  1  0  0  0  0
 18 21  2  0  0  0  0
 18 22  1  0  0  0  0
 19 20  1  0  0  0  0
 19 22  2  0  0  0  0
 20 21  1  0  0  0  0
 22 28  1  0  0  0  0
 23 25  2  0  0  0  0
 23 24  1  0  0  0  0
 24 26  2  0  0  0  0
 25 27  1  0  0  0  0
 26 28  1  0  0  0  0
 27 28  2  0  0  0  0
 29 32  1  0  0  0  0
 31 32  1  0  0  0  0
 32 30  2  1  0  0  0
 32 33  1  0  0  0  0
 33 35  1  0  0  0  0
 33 45  1  1  0  0  0
 34 36  2  0  0  0  0
 35 36  1  0  0  0  0
 36 37  1  0  0  0  0
 37 38  1  0  0  0  0
 38 44  1  0  0  0  0
 39 40  2  0  0  0  0
 39 41  1  0  0  0  0
 40 42  1  0  0  0  0
 41 43  2  0  0  0  0
 42 44  2  0  0  0  0
 43 44  1  0  0  0  0
 45 51  1  0  0  0  0
 46 47  2  0  0  0  0
 46 48  1  0  0  0  0
 47 49  1  0  0  0  0
 48 50  2  0  0  0  0
 49 51  2  0  0  0  0
 50 51  1  0  0  0  0
M  END
>  <MODEL>
      11

>  <COMPND>
    UNNAMED

>  <AUTHOR>
    GENERATED BY OPEN BABEL 2.4.90

>  <MASTER>
        0    0    0    0    0    0    0    0   51    0   51    0

