__2oc2_A_rec_4ca5_3ef_lig_min.pdb
 OpenBabel10171921043D

 51 55  0  0  1  0  0  0  0  0999 V2000
  -14.3390   -8.1490   21.0230 C   0  0  2  0  0  0  0  0  0  0  0  0
  -13.3460   -8.0240   23.2170 N   0  0  0  0  0  0  0  0  0  0  0  0
  -12.0200   -7.6080   21.4250 O   0  0  0  0  0  0  0  0  0  0  0  0
  -13.1210   -7.8930   21.9070 C   0  0  0  0  0  0  0  0  0  0  0  0
  -12.2540   -7.9060   24.1760 C   0  0  2  0  0  0  0  0  0  0  0  0
  -11.7000   -9.3210   24.4880 C   0  0  0  0  0  0  0  0  0  0  0  0
  -10.7200   -9.3830   25.2500 O   0  0  0  0  0  0  0  0  0  0  0  0
  -12.2390  -10.3130   23.9200 O   0  0  0  0  0  0  0  0  0  0  0  0
  -12.7200   -7.1960   25.4590 C   0  0  0  0  0  0  0  0  0  0  0  0
  -14.0690   -7.1960   25.8270 C   0  0  0  0  0  0  0  0  0  0  0  0
  -18.0760   -7.0990   27.0020 O   0  0  0  0  0  0  0  0  0  0  0  0
  -16.7630   -7.1300   26.6130 C   0  0  0  0  0  0  0  0  0  0  0  0
  -14.4760   -7.8690   26.9820 C   0  0  0  0  0  0  0  0  0  0  0  0
  -15.0120   -6.4740   25.0740 C   0  0  0  0  0  0  0  0  0  0  0  0
  -15.8240   -7.8450   27.3700 C   0  0  0  0  0  0  0  0  0  0  0  0
  -16.3550   -6.4500   25.4660 C   0  0  0  0  0  0  0  0  0  0  0  0
  -14.8310   -9.5850   21.3180 C   0  0  0  0  0  0  0  0  0  0  0  0
  -15.3860  -10.3860   23.7030 C   0  0  0  0  0  0  0  0  0  0  0  0
  -17.2850   -9.3680   24.0720 N   0  0  0  0  0  0  0  0  0  0  0  0
  -16.8540   -9.0020   22.7470 O   0  0  0  0  0  0  0  0  0  0  0  0
  -15.6800   -9.6680   22.5960 C   0  0  0  0  0  0  0  0  0  0  0  0
  -16.3720  -10.1800   24.5900 C   0  0  0  0  0  0  0  0  0  0  0  0
  -16.8980  -11.9220   28.3510 C   0  0  0  0  0  0  0  0  0  0  0  0
  -17.9510  -11.2400   27.7290 C   0  0  0  0  0  0  0  0  0  0  0  0
  -15.6600  -12.0170   27.7060 C   0  0  0  0  0  0  0  0  0  0  0  0
  -17.7630  -10.6530   26.4700 C   0  0  0  0  0  0  0  0  0  0  0  0
  -15.4810  -11.4250   26.4470 C   0  0  0  0  0  0  0  0  0  0  0  0
  -16.5200  -10.7260   25.8240 C   0  0  0  0  0  0  0  0  0  0  0  0
  -13.8820   -8.1220   19.5680 C   0  0  0  0  0  0  0  0  0  0  0  0
  -13.6630   -5.4520   19.8480 O   0  0  0  0  0  0  0  0  0  0  0  0
  -15.4580   -6.3920   18.3550 O   0  0  0  0  0  0  0  0  0  0  0  0
  -14.0710   -6.4890   18.8710 P   0  0  2  0  0  0  0  0  0  0  0  0
  -12.9680   -6.4130   17.4190 C   0  0  1  0  0  0  0  0  0  0  0  0
  -14.5800   -5.2110   15.4690 O   0  0  0  0  0  0  0  0  0  0  0  0
  -12.9780   -4.9960   17.0290 N   0  0  0  0  0  0  0  0  0  0  0  0
  -13.7640   -4.4930   16.0700 C   0  0  0  0  0  0  0  0  0  0  0  0
  -13.6310   -3.1730   15.8020 O   0  0  0  0  0  0  0  0  0  0  0  0
  -14.7600   -2.4710   15.2140 C   0  0  0  0  0  0  0  0  0  0  0  0
  -13.5820    1.5260   14.4550 C   0  0  0  0  0  0  0  0  0  0  0  0
  -13.7770    0.6350   13.4010 C   0  0  0  0  0  0  0  0  0  0  0  0
  -13.7800    1.0920   15.7600 C   0  0  0  0  0  0  0  0  0  0  0  0
  -14.1580   -0.6880   13.6500 C   0  0  0  0  0  0  0  0  0  0  0  0
  -14.1690   -0.2330   16.0120 C   0  0  0  0  0  0  0  0  0  0  0  0
  -14.3630   -1.1290   14.9580 C   0  0  0  0  0  0  0  0  0  0  0  0
  -11.5010   -6.7950   17.7030 C   0  0  0  0  0  0  0  0  0  0  0  0
   -9.3100   -6.9440   14.0650 C   0  0  0  0  0  0  0  0  0  0  0  0
  -10.0120   -8.0680   14.5220 C   0  0  0  0  0  0  0  0  0  0  0  0
   -9.3410   -5.7550   14.8100 C   0  0  0  0  0  0  0  0  0  0  0  0
  -10.7300   -8.0010   15.7220 C   0  0  0  0  0  0  0  0  0  0  0  0
  -10.0500   -5.7090   16.0190 C   0  0  0  0  0  0  0  0  0  0  0  0
  -10.7540   -6.8360   16.4900 C   0  0  0  0  0  0  0  0  0  0  0  0
  1 29  1  6  0  0  0
  1 17  1  0  0  0  0
  1  4  1  0  0  0  0
  2  4  1  0  0  0  0
  2  5  1  0  0  0  0
  3  4  2  0  0  0  0
  5  6  1  0  0  0  0
  5  9  1  1  0  0  0
  6  8  2  0  0  0  0
  6  7  1  0  0  0  0
  9 10  1  0  0  0  0
 10 14  2  0  0  0  0
 10 13  1  0  0  0  0
 11 12  1  0  0  0  0
 12 16  2  0  0  0  0
 12 15  1  0  0  0  0
 13 15  2  0  0  0  0
 14 16  1  0  0  0  0
 17 21  1  0  0  0  0
 18 21  2  0  0  0  0
 18 22  1  0  0  0  0
 19 20  1  0  0  0  0
 19 22  2  0  0  0  0
 20 21  1  0  0  0  0
 22 28  1  0  0  0  0
 23 25  2  0  0  0  0
 23 24  1  0  0  0  0
 24 26  2  0  0  0  0
 25 27  1  0  0  0  0
 26 28  1  0  0  0  0
 27 28  2  0  0  0  0
 29 32  1  0  0  0  0
 31 32  1  0  0  0  0
 32 30  2  1  0  0  0
 32 33  1  0  0  0  0
 33 35  1  0  0  0  0
 33 45  1  1  0  0  0
 34 36  2  0  0  0  0
 35 36  1  0  0  0  0
 36 37  1  0  0  0  0
 37 38  1  0  0  0  0
 38 44  1  0  0  0  0
 39 40  2  0  0  0  0
 39 41  1  0  0  0  0
 40 42  1  0  0  0  0
 41 43  2  0  0  0  0
 42 44  2  0  0  0  0
 43 44  1  0  0  0  0
 45 51  1  0  0  0  0
 46 47  2  0  0  0  0
 46 48  1  0  0  0  0
 47 49  1  0  0  0  0
 48 50  2  0  0  0  0
 49 51  2  0  0  0  0
 50 51  1  0  0  0  0
M  END
>  <COMPND>
    UNNAMED

>  <AUTHOR>
    GENERATED BY OPEN BABEL 2.4.90

>  <MASTER>
        0    0    0    0    0    0    0    0   51    0   51    0

