__2xy9_A_rec_1uze_eal_lig_docked.pdb
 OpenBabel10171921043D

 25 26  0  0  1  0  0  0  0  0999 V2000
  -13.3490   -8.1750   20.1070 N   0  0  0  0  0  0  0  0  0  0  0  0
  -14.2550   -8.1170   21.3220 C   0  0  1  0  0  0  0  0  0  0  0  0
  -15.1470   -9.3580   21.4930 C   0  0  0  0  0  0  0  0  0  0  0  0
  -12.1200   -8.5050   22.4950 O   0  0  0  0  0  0  0  0  0  0  0  0
  -13.6900   -7.3620   23.7230 N   0  0  0  0  0  0  0  0  0  0  0  0
  -13.2960   -7.9980   22.5700 C   0  0  0  0  0  0  0  0  0  0  0  0
  -12.7360   -7.2940   24.9090 C   0  0  1  0  0  0  0  0  0  0  0  0
  -13.5820   -6.5050   25.9400 C   0  0  0  0  0  0  0  0  0  0  0  0
  -14.8010   -6.1920   25.3920 C   0  0  0  0  0  0  0  0  0  0  0  0
  -14.9840   -6.6800   24.0230 C   0  0  0  0  0  0  0  0  0  0  0  0
  -11.1440   -9.0600   25.2300 O   0  0  0  0  0  0  0  0  0  0  0  0
  -13.2130   -9.4950   25.8690 O   0  0  0  0  0  0  0  0  0  0  0  0
  -12.3810   -8.7640   25.4040 C   0  0  0  0  0  0  0  0  0  0  0  0
  -12.7590   -7.2470   19.5340 C   0  0  2  0  0  0  0  0  0  0  0  0
  -14.8020   -6.3710   18.5690 O   0  0  0  0  0  0  0  0  0  0  0  0
  -13.5430   -4.9900   19.6630 O   0  0  0  0  0  0  0  0  0  0  0  0
  -13.7500   -6.1150   19.2330 C   0  0  0  0  0  0  0  0  0  0  0  0
  -12.0530   -7.2760   18.2200 C   0  0  0  0  0  0  0  0  0  0  0  0
  -10.9810   -6.3250   17.7170 C   0  0  0  0  0  0  0  0  0  0  0  0
  -10.3870   -6.5290   16.3590 C   0  0  0  0  0  0  0  0  0  0  0  0
  -10.5060   -7.8250   15.6590 C   0  0  0  0  0  0  0  0  0  0  0  0
   -9.9110   -8.0040   14.3440 C   0  0  0  0  0  0  0  0  0  0  0  0
   -9.1850   -6.8940   13.7050 C   0  0  0  0  0  0  0  0  0  0  0  0
   -9.0620   -5.5980   14.3970 C   0  0  0  0  0  0  0  0  0  0  0  0
   -9.6610   -5.4150   15.7220 C   0  0  0  0  0  0  0  0  0  0  0  0
  1 14  1  0  0  0  0
  1  2  1  0  0  0  0
  2  3  1  1  0  0  0
  2  6  1  0  0  0  0
  4  6  2  0  0  0  0
  5  6  1  0  0  0  0
  5 10  1  0  0  0  0
  5  7  1  0  0  0  0
  7 13  1  1  0  0  0
  7  8  1  0  0  0  0
  8  9  2  0  0  0  0
  9 10  1  0  0  0  0
 11 13  2  0  0  0  0
 12 13  1  0  0  0  0
 14 18  1  6  0  0  0
 14 17  1  0  0  0  0
 15 17  2  0  0  0  0
 16 17  1  0  0  0  0
 18 19  2  0  0  0  0
 19 20  1  0  0  0  0
 20 21  2  0  0  0  0
 20 25  1  0  0  0  0
 21 22  1  0  0  0  0
 22 23  2  0  0  0  0
 23 24  1  0  0  0  0
 24 25  2  0  0  0  0
M  END
>  <MODEL>
       1

>  <COMPND>
    UNNAMED

>  <AUTHOR>
    GENERATED BY OPEN BABEL 2.4.90

>  <MASTER>
        0    0    0    0    0    0    0    0   25    0   25    0

