__4bzr_A_rec_4ca5_3ef_lig_docked.pdb
 OpenBabel10171921053D

 51 55  0  0  1  0  0  0  0  0999 V2000
  -14.2740   -8.0250   21.1400 C   0  0  2  0  0  0  0  0  0  0  0  0
  -13.3850   -7.8520   23.3740 N   0  0  0  0  0  0  0  0  0  0  0  0
  -11.9370   -7.6760   21.6380 O   0  0  0  0  0  0  0  0  0  0  0  0
  -13.0830   -7.8260   22.0730 C   0  0  0  0  0  0  0  0  0  0  0  0
  -12.3370   -7.7730   24.3840 C   0  0  2  0  0  0  0  0  0  0  0  0
  -11.8550   -9.2080   24.7260 C   0  0  0  0  0  0  0  0  0  0  0  0
  -10.6340   -9.3640   24.8950 O   0  0  0  0  0  0  0  0  0  0  0  0
  -12.7160  -10.1340   24.7660 O   0  0  0  0  0  0  0  0  0  0  0  0
  -12.8350   -7.0400   25.6430 C   0  0  0  0  0  0  0  0  0  0  0  0
  -14.1850   -7.0730   26.0020 C   0  0  0  0  0  0  0  0  0  0  0  0
  -18.2000   -7.0790   27.1570 O   0  0  0  0  0  0  0  0  0  0  0  0
  -16.8840   -7.0760   26.7740 C   0  0  0  0  0  0  0  0  0  0  0  0
  -14.5920   -7.8090   27.1180 C   0  0  0  0  0  0  0  0  0  0  0  0
  -15.1320   -6.3220   25.2820 C   0  0  0  0  0  0  0  0  0  0  0  0
  -15.9420   -7.8200   27.4980 C   0  0  0  0  0  0  0  0  0  0  0  0
  -16.4770   -6.3330   25.6670 C   0  0  0  0  0  0  0  0  0  0  0  0
  -14.8060   -9.4590   21.3670 C   0  0  0  0  0  0  0  0  0  0  0  0
  -15.5420  -10.2600   23.7030 C   0  0  0  0  0  0  0  0  0  0  0  0
  -17.4810   -9.2740   23.9100 N   0  0  0  0  0  0  0  0  0  0  0  0
  -16.9490   -8.9050   22.6230 O   0  0  0  0  0  0  0  0  0  0  0  0
  -15.7570   -9.5520   22.5720 C   0  0  0  0  0  0  0  0  0  0  0  0
  -16.6010  -10.0690   24.5040 C   0  0  0  0  0  0  0  0  0  0  0  0
  -17.4060  -11.8040   28.2190 C   0  0  0  0  0  0  0  0  0  0  0  0
  -18.4070  -11.1120   27.5250 C   0  0  0  0  0  0  0  0  0  0  0  0
  -16.1270  -11.9110   27.6620 C   0  0  0  0  0  0  0  0  0  0  0  0
  -18.1240  -10.5270   26.2830 C   0  0  0  0  0  0  0  0  0  0  0  0
  -15.8540  -11.3210   26.4190 C   0  0  0  0  0  0  0  0  0  0  0  0
  -16.8410  -10.6120   25.7250 C   0  0  0  0  0  0  0  0  0  0  0  0
  -13.7640   -7.9590   19.7030 C   0  0  0  0  0  0  0  0  0  0  0  0
  -13.4560   -5.3020   20.0210 O   0  0  0  0  0  0  0  0  0  0  0  0
  -15.3350   -6.1610   18.5830 O   0  0  0  0  0  0  0  0  0  0  0  0
  -13.9320   -6.3090   19.0430 P   0  0  2  0  0  0  0  0  0  0  0  0
  -12.8850   -6.2370   17.5500 C   0  0  1  0  0  0  0  0  0  0  0  0
  -14.4520   -5.1090   15.5210 O   0  0  0  0  0  0  0  0  0  0  0  0
  -12.9260   -4.8250   17.1440 N   0  0  0  0  0  0  0  0  0  0  0  0
  -13.6870   -4.3590   16.1470 C   0  0  0  0  0  0  0  0  0  0  0  0
  -13.5870   -3.0370   15.8720 O   0  0  0  0  0  0  0  0  0  0  0  0
  -14.7930   -2.3170   15.4960 C   0  0  0  0  0  0  0  0  0  0  0  0
  -13.7620    0.5110   12.5170 C   0  0  0  0  0  0  0  0  0  0  0  0
  -14.1950    0.9350   13.7730 C   0  0  0  0  0  0  0  0  0  0  0  0
  -13.6680   -0.8490   12.2510 C   0  0  0  0  0  0  0  0  0  0  0  0
  -14.5450    0.0020   14.7560 C   0  0  0  0  0  0  0  0  0  0  0  0
  -14.0110   -1.7870   13.2370 C   0  0  0  0  0  0  0  0  0  0  0  0
  -14.4480   -1.3660   14.4960 C   0  0  0  0  0  0  0  0  0  0  0  0
  -11.4040   -6.6000   17.7840 C   0  0  0  0  0  0  0  0  0  0  0  0
   -9.4160   -7.3100   14.0950 C   0  0  0  0  0  0  0  0  0  0  0  0
   -9.3260   -6.0610   14.7260 C   0  0  0  0  0  0  0  0  0  0  0  0
  -10.1590   -8.3390   14.6940 C   0  0  0  0  0  0  0  0  0  0  0  0
   -9.9860   -5.8440   15.9420 C   0  0  0  0  0  0  0  0  0  0  0  0
  -10.8290   -8.1010   15.9040 C   0  0  0  0  0  0  0  0  0  0  0  0
  -10.7500   -6.8470   16.5420 C   0  0  0  0  0  0  0  0  0  0  0  0
  1 29  1  6  0  0  0
  1 17  1  0  0  0  0
  1  4  1  0  0  0  0
  2  4  1  0  0  0  0
  2  5  1  0  0  0  0
  3  4  2  0  0  0  0
  5  6  1  0  0  0  0
  5  9  1  1  0  0  0
  6  8  2  0  0  0  0
  6  7  1  0  0  0  0
  9 10  1  0  0  0  0
 10 14  2  0  0  0  0
 10 13  1  0  0  0  0
 11 12  1  0  0  0  0
 12 16  2  0  0  0  0
 12 15  1  0  0  0  0
 13 15  2  0  0  0  0
 14 16  1  0  0  0  0
 17 21  1  0  0  0  0
 18 21  2  0  0  0  0
 18 22  1  0  0  0  0
 19 20  1  0  0  0  0
 19 22  2  0  0  0  0
 20 21  1  0  0  0  0
 22 28  1  0  0  0  0
 23 25  2  0  0  0  0
 23 24  1  0  0  0  0
 24 26  2  0  0  0  0
 25 27  1  0  0  0  0
 26 28  1  0  0  0  0
 27 28  2  0  0  0  0
 29 32  1  0  0  0  0
 31 32  1  0  0  0  0
 32 30  2  1  0  0  0
 32 33  1  0  0  0  0
 33 35  1  0  0  0  0
 33 45  1  1  0  0  0
 34 36  2  0  0  0  0
 35 36  1  0  0  0  0
 36 37  1  0  0  0  0
 37 38  1  0  0  0  0
 38 44  1  0  0  0  0
 39 40  2  0  0  0  0
 39 41  1  0  0  0  0
 40 42  1  0  0  0  0
 41 43  2  0  0  0  0
 42 44  2  0  0  0  0
 43 44  1  0  0  0  0
 45 51  1  0  0  0  0
 46 47  2  0  0  0  0
 46 48  1  0  0  0  0
 47 49  1  0  0  0  0
 48 50  2  0  0  0  0
 49 51  2  0  0  0  0
 50 51  1  0  0  0  0
M  END
>  <MODEL>
       4

>  <COMPND>
    UNNAMED

>  <AUTHOR>
    GENERATED BY OPEN BABEL 2.4.90

>  <MASTER>
        0    0    0    0    0    0    0    0   51    0   51    0

