__4c2n_A_rec_1uze_eal_lig_docked.pdb
 OpenBabel10171921053D

 25 26  0  0  1  0  0  0  0  0999 V2000
  -13.3920   -7.5840   19.9130 N   0  0  0  0  0  0  0  0  0  0  0  0
  -14.2960   -7.5370   21.1300 C   0  0  1  0  0  0  0  0  0  0  0  0
  -15.2940   -8.7050   21.2100 C   0  0  0  0  0  0  0  0  0  0  0  0
  -12.0840   -7.8020   22.1900 O   0  0  0  0  0  0  0  0  0  0  0  0
  -13.8090   -7.4290   23.6610 N   0  0  0  0  0  0  0  0  0  0  0  0
  -13.3360   -7.5970   22.3820 C   0  0  0  0  0  0  0  0  0  0  0  0
  -12.8470   -7.5180   24.8380 C   0  0  1  0  0  0  0  0  0  0  0  0
  -13.7990   -7.2660   26.0350 C   0  0  0  0  0  0  0  0  0  0  0  0
  -15.0750   -7.0650   25.5730 C   0  0  0  0  0  0  0  0  0  0  0  0
  -15.2040   -7.1520   24.1160 C   0  0  0  0  0  0  0  0  0  0  0  0
  -13.0430   -9.9090   24.8890 O   0  0  0  0  0  0  0  0  0  0  0  0
  -10.9850   -9.1070   24.9200 O   0  0  0  0  0  0  0  0  0  0  0  0
  -12.1770   -8.9610   24.8820 C   0  0  0  0  0  0  0  0  0  0  0  0
  -12.8530   -6.6440   19.3090 C   0  0  2  0  0  0  0  0  0  0  0  0
  -14.9630   -6.2050   18.2000 O   0  0  0  0  0  0  0  0  0  0  0  0
  -13.8130   -4.4970   18.8680 O   0  0  0  0  0  0  0  0  0  0  0  0
  -13.9320   -5.7080   18.7500 C   0  0  0  0  0  0  0  0  0  0  0  0
  -11.9700   -6.7050   18.1080 C   0  0  0  0  0  0  0  0  0  0  0  0
  -11.1670   -5.5770   17.4850 C   0  0  0  0  0  0  0  0  0  0  0  0
  -10.3290   -5.8450   16.2750 C   0  0  0  0  0  0  0  0  0  0  0  0
   -9.9530   -7.2230   15.8950 C   0  0  0  0  0  0  0  0  0  0  0  0
   -9.1280   -7.4590   14.7200 C   0  0  0  0  0  0  0  0  0  0  0  0
   -8.6630   -6.3240   13.9050 C   0  0  0  0  0  0  0  0  0  0  0  0
   -9.0340   -4.9470   14.2770 C   0  0  0  0  0  0  0  0  0  0  0  0
   -9.8650   -4.7070   15.4610 C   0  0  0  0  0  0  0  0  0  0  0  0
  1 14  1  0  0  0  0
  1  2  1  0  0  0  0
  2  3  1  6  0  0  0
  2  6  1  0  0  0  0
  4  6  2  0  0  0  0
  5  6  1  0  0  0  0
  5 10  1  0  0  0  0
  5  7  1  0  0  0  0
  7 13  1  1  0  0  0
  7  8  1  0  0  0  0
  8  9  2  0  0  0  0
  9 10  1  0  0  0  0
 11 13  2  0  0  0  0
 12 13  1  0  0  0  0
 14 18  1  6  0  0  0
 14 17  1  0  0  0  0
 15 17  2  0  0  0  0
 16 17  1  0  0  0  0
 18 19  2  0  0  0  0
 19 20  1  0  0  0  0
 20 21  2  0  0  0  0
 20 25  1  0  0  0  0
 21 22  1  0  0  0  0
 22 23  2  0  0  0  0
 23 24  1  0  0  0  0
 24 25  2  0  0  0  0
M  END
>  <MODEL>
       8

>  <COMPND>
    UNNAMED

>  <AUTHOR>
    GENERATED BY OPEN BABEL 2.4.90

>  <MASTER>
        0    0    0    0    0    0    0    0   25    0   25    0

