__4c2n_A_rec_2iux_nxa_lig_min.pdb
 OpenBabel10171921043D

  9  8  0  0  1  0  0  0  0  0999 V2000
  -13.9450   -7.8960   23.1940 N   0  0  0  0  0  0  0  0  0  0  0  0
  -12.5570   -7.4640   21.2780 O   0  0  0  0  0  0  0  0  0  0  0  0
  -14.8510   -7.7860   21.1760 O   0  0  0  0  0  0  0  0  0  0  0  0
  -13.7080   -7.6990   21.8350 C   0  0  0  0  0  0  0  0  0  0  0  0
  -12.7530   -7.8420   24.1100 C   0  0  1  0  0  0  0  0  0  0  0  0
  -13.3530   -7.3160   25.4040 C   0  0  0  0  0  0  0  0  0  0  0  0
  -11.8860   -9.0760   24.4620 C   0  0  0  0  0  0  0  0  0  0  0  0
  -12.4580  -10.1870   24.1280 O   0  0  0  0  0  0  0  0  0  0  0  0
  -10.7540   -9.2840   25.0040 O   0  0  0  0  0  0  0  0  0  0  0  0
  1  4  1  0  0  0  0
  1  5  1  0  0  0  0
  2  4  2  0  0  0  0
  3  4  1  0  0  0  0
  5  7  1  0  0  0  0
  5  6  1  1  0  0  0
  7  8  2  0  0  0  0
  7  9  1  0  0  0  0
M  END
>  <COMPND>
    UNNAMED

>  <AUTHOR>
    GENERATED BY OPEN BABEL 2.4.90

>  <MASTER>
        0    0    0    0    0    0    0    0    9    0    9    0

