__4c2q_A_rec_2xy9_3es_lig_min.pdb
 OpenBabel10171921043D

 51 55  0  0  1  0  0  0  0  0999 V2000
  -14.2450   -8.5330   21.3220 C   0  0  1  0  0  0  0  0  0  0  0  0
  -13.0710   -8.0490   22.1960 C   0  0  0  0  0  0  0  0  0  0  0  0
  -12.0560   -7.5850   21.6770 O   0  0  0  0  0  0  0  0  0  0  0  0
  -13.2220   -8.2010   23.5140 N   0  0  0  0  0  0  0  0  0  0  0  0
  -12.1280   -7.9150   24.4530 C   0  0  2  0  0  0  0  0  0  0  0  0
  -11.5910   -9.2720   24.9610 C   0  0  0  0  0  0  0  0  0  0  0  0
  -12.4300  -10.1770   25.1170 O   0  0  0  0  0  0  0  0  0  0  0  0
  -10.3600   -9.4110   25.1220 O   0  0  0  0  0  0  0  0  0  0  0  0
  -12.5660   -7.0240   25.6220 C   0  0  0  0  0  0  0  0  0  0  0  0
  -14.0670   -6.9820   25.9360 C   0  0  0  0  0  0  0  0  0  0  0  0
  -14.5810   -7.7410   26.9860 C   0  0  0  0  0  0  0  0  0  0  0  0
  -15.9480   -7.6920   27.2810 C   0  0  0  0  0  0  0  0  0  0  0  0
  -16.7930   -6.8710   26.5290 C   0  0  0  0  0  0  0  0  0  0  0  0
  -18.1260   -6.8070   26.8140 O   0  0  0  0  0  0  0  0  0  0  0  0
  -16.2770   -6.1060   25.4850 C   0  0  0  0  0  0  0  0  0  0  0  0
  -14.9150   -6.1600   25.1880 C   0  0  0  0  0  0  0  0  0  0  0  0
  -15.5980   -7.9680   21.7880 C   0  0  0  0  0  0  0  0  0  0  0  0
  -16.2690   -8.6990   22.9690 C   0  0  0  0  0  0  0  0  0  0  0  0
  -15.7740   -9.4060   23.9890 C   0  0  0  0  0  0  0  0  0  0  0  0
  -17.6210   -8.6710   23.0930 O   0  0  0  0  0  0  0  0  0  0  0  0
  -17.9300   -9.3970   24.2500 N   0  0  0  0  0  0  0  0  0  0  0  0
  -16.7870   -9.8280   24.7710 C   0  0  0  0  0  0  0  0  0  0  0  0
  -16.7120  -10.6010   25.9340 C   0  0  0  0  0  0  0  0  0  0  0  0
  -15.5220  -11.2140   26.3150 C   0  0  0  0  0  0  0  0  0  0  0  0
  -15.4600  -11.9930   27.4720 C   0  0  0  0  0  0  0  0  0  0  0  0
  -16.5940  -12.1670   28.2600 C   0  0  0  0  0  0  0  0  0  0  0  0
  -17.7940  -11.5560   27.8840 C   0  0  0  0  0  0  0  0  0  0  0  0
  -17.8510  -10.7830   26.7200 C   0  0  0  0  0  0  0  0  0  0  0  0
  -13.9730   -8.2330   19.8320 C   0  0  0  0  0  0  0  0  0  0  0  0
  -14.1190   -6.4770   19.3890 P   0  0  1  0  0  0  0  0  0  0  0  0
  -15.6130   -6.3070   18.8780 O   0  0  0  0  0  0  0  0  0  0  0  0
  -13.7310   -5.5320   20.4640 O   0  0  0  0  0  0  0  0  0  0  0  0
  -13.1010   -6.1540   17.8930 C   0  0  1  0  0  0  0  0  0  0  0  0
  -14.0980   -4.4400   16.4120 C   0  0  0  0  0  0  0  0  0  0  0  0
  -14.6460   -5.2550   15.6620 O   0  0  0  0  0  0  0  0  0  0  0  0
  -13.3580   -4.7740   17.4690 N   0  0  0  0  0  0  0  0  0  0  0  0
  -14.1830   -3.0980   16.1990 O   0  0  0  0  0  0  0  0  0  0  0  0
  -14.9460   -2.5450   15.1090 C   0  0  0  0  0  0  0  0  0  0  0  0
  -14.2900   -0.3000   15.7220 C   0  0  0  0  0  0  0  0  0  0  0  0
  -13.8920    0.9940   15.3700 C   0  0  0  0  0  0  0  0  0  0  0  0
  -13.7690    1.3440   14.0270 C   0  0  0  0  0  0  0  0  0  0  0  0
  -14.0400    0.3990   13.0410 C   0  0  0  0  0  0  0  0  0  0  0  0
  -14.4360   -0.8960   13.3890 C   0  0  0  0  0  0  0  0  0  0  0  0
  -14.5680   -1.2470   14.7310 C   0  0  0  0  0  0  0  0  0  0  0  0
  -11.5970   -6.3280   18.1470 C   0  0  0  0  0  0  0  0  0  0  0  0
  -10.7990   -6.2530   16.8330 C   0  0  0  0  0  0  0  0  0  0  0  0
  -10.5790   -7.4140   16.0860 C   0  0  0  0  0  0  0  0  0  0  0  0
   -9.8590   -7.3480   14.8910 C   0  0  0  0  0  0  0  0  0  0  0  0
   -9.3620   -6.1250   14.4380 C   0  0  0  0  0  0  0  0  0  0  0  0
   -9.5890   -4.9620   15.1780 C   0  0  0  0  0  0  0  0  0  0  0  0
  -10.3050   -5.0290   16.3760 C   0  0  0  0  0  0  0  0  0  0  0  0
  1 29  1  6  0  0  0
  1 17  1  0  0  0  0
  1  2  1  0  0  0  0
  2  3  2  0  0  0  0
  2  4  1  0  0  0  0
  4  5  1  0  0  0  0
  5  6  1  0  0  0  0
  5  9  1  1  0  0  0
  6  7  2  0  0  0  0
  6  8  1  0  0  0  0
  9 10  1  0  0  0  0
 10 16  2  0  0  0  0
 10 11  1  0  0  0  0
 11 12  2  0  0  0  0
 12 13  1  0  0  0  0
 13 15  2  0  0  0  0
 13 14  1  0  0  0  0
 15 16  1  0  0  0  0
 17 18  1  0  0  0  0
 18 20  1  0  0  0  0
 18 19  2  0  0  0  0
 19 22  1  0  0  0  0
 20 21  1  0  0  0  0
 21 22  2  0  0  0  0
 22 23  1  0  0  0  0
 23 24  2  0  0  0  0
 23 28  1  0  0  0  0
 24 25  1  0  0  0  0
 25 26  2  0  0  0  0
 26 27  1  0  0  0  0
 27 28  2  0  0  0  0
 29 30  1  0  0  0  0
 30 33  1  0  0  0  0
 30 31  2  6  0  0  0
 30 32  1  0  0  0  0
 33 36  1  0  0  0  0
 33 45  1  1  0  0  0
 34 35  2  0  0  0  0
 34 37  1  0  0  0  0
 34 36  1  0  0  0  0
 37 38  1  0  0  0  0
 38 44  1  0  0  0  0
 39 44  2  0  0  0  0
 39 40  1  0  0  0  0
 40 41  2  0  0  0  0
 41 42  1  0  0  0  0
 42 43  2  0  0  0  0
 43 44  1  0  0  0  0
 45 46  1  0  0  0  0
 46 47  2  0  0  0  0
 46 51  1  0  0  0  0
 47 48  1  0  0  0  0
 48 49  2  0  0  0  0
 49 50  1  0  0  0  0
 50 51  2  0  0  0  0
M  END
>  <COMPND>
    UNNAMED

>  <AUTHOR>
    GENERATED BY OPEN BABEL 2.4.90

>  <MASTER>
        0    0    0    0    0    0    0    0   51    0   51    0

