__4c2r_A_rec_2iux_nxa_lig_min.pdb
 OpenBabel10171921043D

  9  8  0  0  1  0  0  0  0  0999 V2000
  -14.0070   -8.2390   23.1140 N   0  0  0  0  0  0  0  0  0  0  0  0
  -13.0020   -7.2410   21.1700 O   0  0  0  0  0  0  0  0  0  0  0  0
  -15.1710   -8.0570   21.2390 O   0  0  0  0  0  0  0  0  0  0  0  0
  -13.9950   -7.8060   21.7900 C   0  0  0  0  0  0  0  0  0  0  0  0
  -12.7430   -8.0440   23.9070 C   0  0  1  0  0  0  0  0  0  0  0  0
  -13.2530   -7.4130   25.1920 C   0  0  0  0  0  0  0  0  0  0  0  0
  -11.7900   -9.2000   24.2980 C   0  0  0  0  0  0  0  0  0  0  0  0
  -12.1500  -10.3290   23.7780 O   0  0  0  0  0  0  0  0  0  0  0  0
  -10.7420   -9.3320   25.0080 O   0  0  0  0  0  0  0  0  0  0  0  0
  1  4  1  0  0  0  0
  1  5  1  0  0  0  0
  2  4  2  0  0  0  0
  3  4  1  0  0  0  0
  5  7  1  0  0  0  0
  5  6  1  1  0  0  0
  7  8  2  0  0  0  0
  7  9  1  0  0  0  0
M  END
>  <COMPND>
    UNNAMED

>  <AUTHOR>
    GENERATED BY OPEN BABEL 2.4.90

>  <MASTER>
        0    0    0    0    0    0    0    0    9    0    9    0

