__4c2r_A_rec_4ca5_3ef_lig_docked.pdb
 OpenBabel10171921053D

 51 55  0  0  1  0  0  0  0  0999 V2000
  -14.1990   -7.8490   21.3310 C   0  0  2  0  0  0  0  0  0  0  0  0
  -13.3570   -7.7170   23.5860 N   0  0  0  0  0  0  0  0  0  0  0  0
  -11.8520   -7.7390   21.8900 O   0  0  0  0  0  0  0  0  0  0  0  0
  -13.0190   -7.7550   22.2940 C   0  0  0  0  0  0  0  0  0  0  0  0
  -12.3340   -7.7260   24.6250 C   0  0  2  0  0  0  0  0  0  0  0  0
  -11.8680   -9.1870   24.8630 C   0  0  0  0  0  0  0  0  0  0  0  0
  -12.7580  -10.0350   25.0450 O   0  0  0  0  0  0  0  0  0  0  0  0
  -10.6270   -9.4190   24.9050 O   0  0  0  0  0  0  0  0  0  0  0  0
  -12.8590   -7.0900   25.9240 C   0  0  0  0  0  0  0  0  0  0  0  0
  -14.2210   -7.1200   26.2350 C   0  0  0  0  0  0  0  0  0  0  0  0
  -18.2730   -7.1220   27.2520 O   0  0  0  0  0  0  0  0  0  0  0  0
  -16.9450   -7.1210   26.9140 C   0  0  0  0  0  0  0  0  0  0  0  0
  -14.6780   -7.9140   27.2900 C   0  0  0  0  0  0  0  0  0  0  0  0
  -15.1300   -6.3110   25.5300 C   0  0  0  0  0  0  0  0  0  0  0  0
  -16.0400   -7.9230   27.6240 C   0  0  0  0  0  0  0  0  0  0  0  0
  -16.4880   -6.3200   25.8680 C   0  0  0  0  0  0  0  0  0  0  0  0
  -14.8020   -9.2660   21.4730 C   0  0  0  0  0  0  0  0  0  0  0  0
  -15.5340  -10.2270   23.7480 C   0  0  0  0  0  0  0  0  0  0  0  0
  -17.3740   -9.1090   24.1210 N   0  0  0  0  0  0  0  0  0  0  0  0
  -16.8510   -8.6620   22.8560 O   0  0  0  0  0  0  0  0  0  0  0  0
  -15.7200   -9.3960   22.6990 C   0  0  0  0  0  0  0  0  0  0  0  0
  -16.5480  -10.0280   24.6040 C   0  0  0  0  0  0  0  0  0  0  0  0
  -17.2450  -11.9320   28.2570 C   0  0  0  0  0  0  0  0  0  0  0  0
  -15.9950  -12.0260   27.6330 C   0  0  0  0  0  0  0  0  0  0  0  0
  -18.2680  -11.1970   27.6480 C   0  0  0  0  0  0  0  0  0  0  0  0
  -15.7730  -11.3890   26.4040 C   0  0  0  0  0  0  0  0  0  0  0  0
  -18.0370  -10.5650   26.4180 C   0  0  0  0  0  0  0  0  0  0  0  0
  -16.7970  -10.6650   25.7760 C   0  0  0  0  0  0  0  0  0  0  0  0
  -13.6590   -7.7330   19.9080 C   0  0  0  0  0  0  0  0  0  0  0  0
  -13.4330   -5.0690   20.2400 O   0  0  0  0  0  0  0  0  0  0  0  0
  -15.3220   -5.9830   18.8500 O   0  0  0  0  0  0  0  0  0  0  0  0
  -13.9030   -6.0840   19.2670 P   0  0  2  0  0  0  0  0  0  0  0  0
  -12.9030   -5.9650   17.7460 C   0  0  1  0  0  0  0  0  0  0  0  0
  -14.2090   -5.1360   15.4120 O   0  0  0  0  0  0  0  0  0  0  0  0
  -13.1020   -4.5840   17.2850 N   0  0  0  0  0  0  0  0  0  0  0  0
  -13.7210   -4.2610   16.1440 C   0  0  0  0  0  0  0  0  0  0  0  0
  -13.7940   -2.9430   15.8420 O   0  0  0  0  0  0  0  0  0  0  0  0
  -14.9220   -2.4790   15.0510 C   0  0  0  0  0  0  0  0  0  0  0  0
  -13.7400    1.0320   12.9990 C   0  0  0  0  0  0  0  0  0  0  0  0
  -13.6550   -0.2120   12.3760 C   0  0  0  0  0  0  0  0  0  0  0  0
  -14.2200    1.1120   14.3000 C   0  0  0  0  0  0  0  0  0  0  0  0
  -14.0360   -1.3750   13.0550 C   0  0  0  0  0  0  0  0  0  0  0  0
  -14.6100   -0.0520   14.9810 C   0  0  0  0  0  0  0  0  0  0  0  0
  -14.5230   -1.3010   14.3610 C   0  0  0  0  0  0  0  0  0  0  0  0
  -11.3860   -6.1600   17.9540 C   0  0  0  0  0  0  0  0  0  0  0  0
   -9.5210   -7.0740   14.2470 C   0  0  0  0  0  0  0  0  0  0  0  0
  -10.1410   -8.0800   15.0010 C   0  0  0  0  0  0  0  0  0  0  0  0
   -9.5270   -5.7500   14.7150 C   0  0  0  0  0  0  0  0  0  0  0  0
  -10.7520   -7.7610   16.2200 C   0  0  0  0  0  0  0  0  0  0  0  0
  -10.1280   -5.4500   15.9460 C   0  0  0  0  0  0  0  0  0  0  0  0
  -10.7480   -6.4560   16.7140 C   0  0  0  0  0  0  0  0  0  0  0  0
  1 29  1  6  0  0  0
  1 17  1  0  0  0  0
  1  4  1  0  0  0  0
  2  4  1  0  0  0  0
  2  5  1  0  0  0  0
  3  4  2  0  0  0  0
  5  6  1  0  0  0  0
  5  9  1  1  0  0  0
  6  8  2  0  0  0  0
  6  7  1  0  0  0  0
  9 10  1  0  0  0  0
 10 14  2  0  0  0  0
 10 13  1  0  0  0  0
 11 12  1  0  0  0  0
 12 16  2  0  0  0  0
 12 15  1  0  0  0  0
 13 15  2  0  0  0  0
 14 16  1  0  0  0  0
 17 21  1  0  0  0  0
 18 21  2  0  0  0  0
 18 22  1  0  0  0  0
 19 20  1  0  0  0  0
 19 22  2  0  0  0  0
 20 21  1  0  0  0  0
 22 28  1  0  0  0  0
 23 25  2  0  0  0  0
 23 24  1  0  0  0  0
 24 26  2  0  0  0  0
 25 27  1  0  0  0  0
 26 28  1  0  0  0  0
 27 28  2  0  0  0  0
 29 32  1  0  0  0  0
 31 32  1  0  0  0  0
 32 30  2  1  0  0  0
 32 33  1  0  0  0  0
 33 35  1  0  0  0  0
 33 45  1  1  0  0  0
 34 36  2  0  0  0  0
 35 36  1  0  0  0  0
 36 37  1  0  0  0  0
 37 38  1  0  0  0  0
 38 44  1  0  0  0  0
 39 40  2  0  0  0  0
 39 41  1  0  0  0  0
 40 42  1  0  0  0  0
 41 43  2  0  0  0  0
 42 44  2  0  0  0  0
 43 44  1  0  0  0  0
 45 51  1  0  0  0  0
 46 47  2  0  0  0  0
 46 48  1  0  0  0  0
 47 49  1  0  0  0  0
 48 50  2  0  0  0  0
 49 51  2  0  0  0  0
 50 51  1  0  0  0  0
M  END
>  <MODEL>
       4

>  <COMPND>
    UNNAMED

>  <AUTHOR>
    GENERATED BY OPEN BABEL 2.4.90

>  <MASTER>
        0    0    0    0    0    0    0    0   51    0   51    0

