__2rjd_A_rec_3p8h_p8h_lig_docked.pdb
 OpenBabel10191916123D

 20 22  0  0  0  0  0  0  0  0999 V2000
  134.9490   55.9700   33.5630 C   0  0  0  0  0  0  0  0  0  0  0  0
  135.5620   55.6130   34.5700 O   0  0  0  0  0  0  0  0  0  0  0  0
  134.4220   55.0350   32.7540 N   0  0  0  0  0  0  0  0  0  0  0  0
  133.6270   55.3610   31.5380 C   0  0  0  0  0  0  0  0  0  0  0  0
  132.1990   54.8120   31.7460 C   0  0  0  0  0  0  0  0  0  0  0  0
  134.5590   53.5920   33.0860 C   0  0  0  0  0  0  0  0  0  0  0  0
  133.1500   52.9970   33.2830 C   0  0  0  0  0  0  0  0  0  0  0  0
  132.1720   53.3050   32.1110 C   0  0  0  0  0  0  0  0  0  0  0  0
  133.5940   59.5220   33.6520 C   0  0  0  0  0  0  0  0  0  0  0  0
  134.4730   60.1620   32.7770 C   0  0  0  0  0  0  0  0  0  0  0  0
  135.4490   59.4720   32.1910 N   0  0  0  0  0  0  0  0  0  0  0  0
  135.6260   58.1710   32.4140 C   0  0  0  0  0  0  0  0  0  0  0  0
  134.7770   57.4730   33.2790 C   0  0  0  0  0  0  0  0  0  0  0  0
  133.7500   58.1650   33.9100 C   0  0  0  0  0  0  0  0  0  0  0  0
  132.1890   60.4590   34.5100 Br  0  0  0  0  0  0  0  0  0  0  0  0
  130.8010   52.8650   32.4630 N   0  0  0  0  0  0  0  0  0  0  0  0
  129.8400   53.0590   31.3650 C   0  0  0  0  0  0  0  0  0  0  0  0
  128.6640   52.1510   31.7120 C   0  0  0  0  0  0  0  0  0  0  0  0
  129.2670   51.0770   32.6210 C   0  0  0  0  0  0  0  0  0  0  0  0
  130.7540   51.4080   32.6510 C   0  0  0  0  0  0  0  0  0  0  0  0
  1  3  1  0  0  0  0
  1 13  1  0  0  0  0
  1  2  2  0  0  0  0
  3  4  1  0  0  0  0
  3  6  1  0  0  0  0
  4  5  1  0  0  0  0
  5  8  1  0  0  0  0
  6  7  1  0  0  0  0
  7  8  1  0  0  0  0
  8 16  1  0  0  0  0
  9 10  2  0  0  0  0
  9 14  1  0  0  0  0
  9 15  1  0  0  0  0
 10 11  1  0  0  0  0
 11 12  2  0  0  0  0
 12 13  1  0  0  0  0
 13 14  2  0  0  0  0
 16 17  1  0  0  0  0
 16 20  1  0  0  0  0
 17 18  1  0  0  0  0
 18 19  1  0  0  0  0
 19 20  1  0  0  0  0
M  END
>  <MODEL>
       2

>  <COMPND>
    UNNAMED

>  <AUTHOR>
    GENERATED BY OPEN BABEL 2.4.90

>  <MASTER>
        0    0    0    0    0    0    0    0   20    0   20    0

