__2rje_B_rec_2rhy_mlz_lig_min.pdb
 OpenBabel10191916073D

 11 10  0  0  1  0  0  0  0  0999 V2000
  136.5710   55.2020   33.9220 N   0  0  0  0  0  0  0  0  0  0  0  0
  135.8090   53.9350   33.7160 C   0  0  2  0  0  0  0  0  0  0  0  0
  136.2450   53.2640   32.4130 C   0  0  0  0  0  0  0  0  0  0  0  0
  136.6680   52.0900   32.4650 O   0  0  0  0  0  0  0  0  0  0  0  0
  136.1640   53.9240   31.3560 O   0  0  0  0  0  0  0  0  0  0  0  0
  134.3090   54.2380   33.6760 C   0  0  0  0  0  0  0  0  0  0  0  0
  133.4270   53.0420   33.3790 C   0  0  0  0  0  0  0  0  0  0  0  0
  132.0840   53.5100   32.8500 C   0  0  0  0  0  0  0  0  0  0  0  0
  131.1340   52.3530   32.5960 C   0  0  0  0  0  0  0  0  0  0  0  0
  129.8240   52.8640   32.1820 N   0  0  0  0  0  0  0  0  0  0  0  0
  128.8210   51.7970   32.0280 C   0  0  0  0  0  0  0  0  0  0  0  0
  2  1  1  6  0  0  0
  2  3  1  0  0  0  0
  2  6  1  0  0  0  0
  3  5  2  0  0  0  0
  3  4  1  0  0  0  0
  6  7  1  0  0  0  0
  7  8  1  0  0  0  0
  8  9  1  0  0  0  0
  9 10  1  0  0  0  0
 10 11  1  0  0  0  0
M  END
>  <COMPND>
    UNNAMED

>  <AUTHOR>
    GENERATED BY OPEN BABEL 2.4.90

>  <MASTER>
        0    0    0    0    0    0    0    0   11    0   11    0

