__4rlt_A_rec_4rlu_hcc_lig_min.pdb
 OpenBabel10181915273D

 19 20  0  0  0  0  0  0  0  0999 V2000
   -1.2010   22.4620  -29.6090 C   0  0  0  0  0  0  0  0  0  0  0  0
   -1.1890   21.7990  -28.5930 O   0  0  0  0  0  0  0  0  0  0  0  0
   -3.7430   25.9010  -29.6660 C   0  0  0  0  0  0  0  0  0  0  0  0
   -2.9060   25.6510  -30.7420 C   0  0  0  0  0  0  0  0  0  0  0  0
   -2.0790   24.5400  -30.7460 C   0  0  0  0  0  0  0  0  0  0  0  0
   -2.0900   23.6830  -29.6580 C   0  0  0  0  0  0  0  0  0  0  0  0
   -2.9190   23.9340  -28.5810 C   0  0  0  0  0  0  0  0  0  0  0  0
   -3.7490   25.0420  -28.5800 C   0  0  0  0  0  0  0  0  0  0  0  0
   -2.9170   23.0550  -27.4830 O   0  0  0  0  0  0  0  0  0  0  0  0
   -4.5860   27.0290  -29.6650 O   0  0  0  0  0  0  0  0  0  0  0  0
   -0.3220   22.0490  -30.7700 C   0  0  0  0  0  0  0  0  0  0  0  0
    0.3770   20.9000  -30.6500 C   0  0  0  0  0  0  0  0  0  0  0  0
    1.2970   20.3970  -31.7390 C   0  0  0  0  0  0  0  0  0  0  0  0
    1.8340   21.2680  -32.6710 C   0  0  0  0  0  0  0  0  0  0  0  0
    2.6790   20.7870  -33.6620 C   0  0  0  0  0  0  0  0  0  0  0  0
    2.9850   19.4360  -33.7190 C   0  0  0  0  0  0  0  0  0  0  0  0
    2.4470   18.5660  -32.7860 C   0  0  0  0  0  0  0  0  0  0  0  0
    1.6040   19.0470  -31.7970 C   0  0  0  0  0  0  0  0  0  0  0  0
    3.8420   18.9480  -34.7240 O   0  0  0  0  0  0  0  0  0  0  0  0
  1 11  1  0  0  0  0
  1  6  1  0  0  0  0
  1  2  2  0  0  0  0
  3  4  2  0  0  0  0
  3 10  1  0  0  0  0
  3  8  1  0  0  0  0
  4  5  1  0  0  0  0
  5  6  2  0  0  0  0
  6  7  1  0  0  0  0
  7  8  2  0  0  0  0
  7  9  1  0  0  0  0
 11 12  2  0  0  0  0
 12 13  1  0  0  0  0
 13 14  2  0  0  0  0
 13 18  1  0  0  0  0
 14 15  1  0  0  0  0
 15 16  2  0  0  0  0
 16 19  1  0  0  0  0
 16 17  1  0  0  0  0
 17 18  2  0  0  0  0
M  END
>  <COMPND>
    UNNAMED

>  <AUTHOR>
    GENERATED BY OPEN BABEL 2.4.90

>  <MASTER>
        0    0    0    0    0    0    0    0   19    0   19    0

