__10gs_A_rec_3gus_gsh_lig_min.pdb
 OpenBabel10191907083D

 20 19  0  0  1  0  0  0  0  0999 V2000
   20.4950    4.0550   27.1890 C   0  0  0  0  0  0  0  0  0  0  0  0
   21.6340    4.0050   26.4810 O   0  0  0  0  0  0  0  0  0  0  0  0
   20.4520    4.4740   28.4420 N   0  0  0  0  0  0  0  0  0  0  0  0
   19.1940    3.6510   26.5580 C   0  0  0  0  0  0  0  0  0  0  0  0
   19.4150    3.0120   25.2220 C   0  0  0  0  0  0  0  0  0  0  0  0
   18.4710    1.2940   23.8120 N   0  0  0  0  0  0  0  0  0  0  0  0
   18.1590    2.2790   24.8010 C   0  0  2  0  0  0  0  0  0  0  0  0
   17.1150    3.2460   24.2580 C   0  0  0  0  0  0  0  0  0  0  0  0
   17.0140    3.3640   23.0320 O   0  0  0  0  0  0  0  0  0  0  0  0
   16.3840    3.7860   25.0850 O   0  0  0  0  0  0  0  0  0  0  0  0
   21.5520    5.1670   29.1410 C   0  0  2  0  0  0  0  0  0  0  0  0
   21.5900    4.6220   30.5460 C   0  0  0  0  0  0  0  0  0  0  0  0
   20.5080    4.6340   31.2890 O   0  0  0  0  0  0  0  0  0  0  0  0
   22.6670    4.1370   31.0660 N   0  0  0  0  0  0  0  0  0  0  0  0
   22.7650    3.7750   32.4690 C   0  0  0  0  0  0  0  0  0  0  0  0
   23.4780    2.4720   32.7140 C   0  0  0  0  0  0  0  0  0  0  0  0
   23.7410    1.7270   31.7880 O   0  0  0  0  0  0  0  0  0  0  0  0
   23.7820    2.1540   33.8620 O   0  0  0  0  0  0  0  0  0  0  0  0
   21.0860    6.5600   29.0780 C   0  0  0  0  0  0  0  0  0  0  0  0
   22.0050    7.6630   27.9810 S   0  0  0  0  0  0  0  0  0  0  0  0
  1  2  2  0  0  0  0
  1  4  1  0  0  0  0
  1  3  1  0  0  0  0
  3 11  1  0  0  0  0
  4  5  1  0  0  0  0
  5  7  1  0  0  0  0
  7  6  1  6  0  0  0
  7  8  1  0  0  0  0
  8  9  2  0  0  0  0
  8 10  1  0  0  0  0
 11 19  1  1  0  0  0
 11 12  1  0  0  0  0
 12 14  1  0  0  0  0
 12 13  2  0  0  0  0
 14 15  1  0  0  0  0
 15 16  1  0  0  0  0
 16 17  2  0  0  0  0
 16 18  1  0  0  0  0
 19 20  1  0  0  0  0
M  END
>  <COMPND>
    UNNAMED

>  <AUTHOR>
    GENERATED BY OPEN BABEL 2.4.90

>  <MASTER>
        0    0    0    0    0    0    0    0   20    0   20    0

