__10gs_A_rec_1lbk_gsh_lig_min.pdb
 OpenBabel10191906423D

 20 19  0  0  1  0  0  0  0  0999 V2000
   20.3940    4.3600   27.1960 C   0  0  0  0  0  0  0  0  0  0  0  0
   21.1810    4.9150   26.4050 O   0  0  0  0  0  0  0  0  0  0  0  0
   20.4380    4.5370   28.5180 N   0  0  0  0  0  0  0  0  0  0  0  0
   19.3060    3.4090   26.7180 C   0  0  0  0  0  0  0  0  0  0  0  0
   19.3980    3.0480   25.2310 C   0  0  0  0  0  0  0  0  0  0  0  0
   18.5930    1.3850   23.6020 N   0  0  0  0  0  0  0  0  0  0  0  0
   18.1830    2.2770   24.7160 C   0  0  2  0  0  0  0  0  0  0  0  0
   17.1000    3.2480   24.2290 C   0  0  0  0  0  0  0  0  0  0  0  0
   16.4310    3.8670   25.0820 O   0  0  0  0  0  0  0  0  0  0  0  0
   16.9310    3.3850   23.0000 O   0  0  0  0  0  0  0  0  0  0  0  0
   21.4170    5.3950   29.1830 C   0  0  2  0  0  0  0  0  0  0  0  0
   21.6240    4.9030   30.6160 C   0  0  0  0  0  0  0  0  0  0  0  0
   20.6570    4.5350   31.2990 O   0  0  0  0  0  0  0  0  0  0  0  0
   22.8880    4.9010   31.0500 N   0  0  0  0  0  0  0  0  0  0  0  0
   23.2350    4.4600   32.3960 C   0  0  0  0  0  0  0  0  0  0  0  0
   23.6790    3.0230   32.5170 C   0  0  0  0  0  0  0  0  0  0  0  0
   23.6830    2.5030   33.6550 O   0  0  0  0  0  0  0  0  0  0  0  0
   24.0220    2.4150   31.4770 O   0  0  0  0  0  0  0  0  0  0  0  0
   20.9330    6.8540   29.2190 C   0  0  0  0  0  0  0  0  0  0  0  0
   22.3170    8.0550   29.2680 S   0  0  0  0  0  0  0  0  0  0  0  0
  1  2  2  0  0  0  0
  1  4  1  0  0  0  0
  1  3  1  0  0  0  0
  3 11  1  0  0  0  0
  4  5  1  0  0  0  0
  5  7  1  0  0  0  0
  7  6  1  6  0  0  0
  7  8  1  0  0  0  0
  8 10  2  0  0  0  0
  8  9  1  0  0  0  0
 11 19  1  1  0  0  0
 11 12  1  0  0  0  0
 12 14  1  0  0  0  0
 12 13  2  0  0  0  0
 14 15  1  0  0  0  0
 15 16  1  0  0  0  0
 16 18  2  0  0  0  0
 16 17  1  0  0  0  0
 19 20  1  0  0  0  0
M  END
>  <COMPND>
    UNNAMED

>  <AUTHOR>
    GENERATED BY OPEN BABEL 2.4.90

>  <MASTER>
        0    0    0    0    0    0    0    0   20    0   20    0

