__10gs_A_rec_4pgt_gbx_lig_docked.pdb
 OpenBabel10191911123D

 43 47  0  0  1  0  0  0  0  0999 V2000
   20.8210    7.4450   27.6430 S   0  0  0  0  0  0  0  0  0  0  0  0
   24.4100    6.4040   26.4710 C   0  0  1  0  0  0  0  0  0  0  0  0
   24.7380    5.2250   26.6370 O   0  0  0  0  0  0  0  0  0  0  0  0
   23.3950    6.5640   25.7710 C   0  0  0  0  0  0  0  0  0  0  0  0
   23.4450    6.0430   24.6550 O   0  0  0  0  0  0  0  0  0  0  0  0
   22.7410    7.9390   25.7470 C   0  0  2  0  0  0  0  0  0  0  0  0
   23.4250    8.9640   25.0400 O   0  0  0  0  0  0  0  0  0  0  0  0
   22.3140    8.3730   27.1530 C   0  0  2  0  0  0  0  0  0  0  0  0
   25.5750    7.0040   28.6110 C   0  0  0  0  0  0  0  0  0  0  0  0
   24.4870    7.2030   27.7520 C   0  0  0  0  0  0  0  0  0  0  0  0
   23.5040    8.1760   28.0760 C   0  0  0  0  0  0  0  0  0  0  0  0
   22.7030    9.9110   29.5810 C   0  0  0  0  0  0  0  0  0  0  0  0
   22.8390   10.6620   30.7460 C   0  0  0  0  0  0  0  0  0  0  0  0
   24.0900   11.2360   32.7270 C   0  0  0  0  0  0  0  0  0  0  0  0
   25.1990   11.0450   33.5540 C   0  0  0  0  0  0  0  0  0  0  0  0
   26.1640   10.0860   33.2320 C   0  0  0  0  0  0  0  0  0  0  0  0
   26.9720    8.3640   31.7470 C   0  0  0  0  0  0  0  0  0  0  0  0
   26.8170    7.5840   30.6000 C   0  0  0  0  0  0  0  0  0  0  0  0
   25.7100    7.7640   29.7700 C   0  0  0  0  0  0  0  0  0  0  0  0
   24.7510    8.7330   30.0910 C   0  0  0  0  0  0  0  0  0  0  0  0
   23.6560    8.9410   29.2470 C   0  0  0  0  0  0  0  0  0  0  0  0
   23.9510   10.4830   31.5640 C   0  0  0  0  0  0  0  0  0  0  0  0
   24.8890    9.4960   31.2580 C   0  0  0  0  0  0  0  0  0  0  0  0
   26.0060    9.3110   32.0840 C   0  0  0  0  0  0  0  0  0  0  0  0
   21.2880    6.6260   29.1900 C   0  0  0  0  0  0  0  0  0  0  0  0
   21.6420    5.1390   29.0590 C   0  0  1  0  0  0  0  0  0  0  0  0
   20.4160    4.5530   31.0300 O   0  0  0  0  0  0  0  0  0  0  0  0
   21.4780    4.4520   30.4150 C   0  0  0  0  0  0  0  0  0  0  0  0
   22.5080    3.7530   30.8790 N   0  0  0  0  0  0  0  0  0  0  0  0
   22.5020    3.0610   32.1720 C   0  0  0  0  0  0  0  0  0  0  0  0
   23.6280    2.0500   32.3000 C   0  0  0  0  0  0  0  0  0  0  0  0
   23.3670    0.8460   32.3840 O   0  0  0  0  0  0  0  0  0  0  0  0
   24.8020    2.4870   32.3220 O   0  0  0  0  0  0  0  0  0  0  0  0
   20.7280    4.5450   28.0880 N   0  0  0  0  0  0  0  0  0  0  0  0
   21.1140    3.8570   27.0240 C   0  0  0  0  0  0  0  0  0  0  0  0
   22.2900    3.6420   26.7200 O   0  0  0  0  0  0  0  0  0  0  0  0
   19.9800    3.3490   26.1590 C   0  0  0  0  0  0  0  0  0  0  0  0
   18.7200    3.1280   26.9850 C   0  0  0  0  0  0  0  0  0  0  0  0
   18.1980    1.1230   25.6240 N   0  0  0  0  0  0  0  0  0  0  0  0
   17.6510    2.3850   26.1820 C   0  0  2  0  0  0  0  0  0  0  0  0
   17.0680    3.3290   25.1410 C   0  0  0  0  0  0  0  0  0  0  0  0
   16.3860    4.3050   25.4910 O   0  0  0  0  0  0  0  0  0  0  0  0
   17.3100    3.0750   23.9410 O   0  0  0  0  0  0  0  0  0  0  0  0
  1 25  1  0  0  0  0
  2  4  1  0  0  0  0
  2  3  1  1  0  0  0
  2 10  1  0  0  0  0
  4  5  2  0  0  0  0
  4  6  1  0  0  0  0
  6  7  1  1  0  0  0
  6  8  1  0  0  0  0
  8  1  1  1  0  0  0
  8 11  1  0  0  0  0
  9 10  2  0  0  0  0
  9 19  1  0  0  0  0
 10 11  1  0  0  0  0
 11 21  2  0  0  0  0
 12 21  1  0  0  0  0
 12 13  2  0  0  0  0
 13 22  1  0  0  0  0
 14 22  2  0  0  0  0
 14 15  1  0  0  0  0
 15 16  2  0  0  0  0
 16 24  1  0  0  0  0
 17 18  2  0  0  0  0
 17 24  1  0  0  0  0
 18 19  1  0  0  0  0
 19 20  2  0  0  0  0
 20 21  1  0  0  0  0
 20 23  1  0  0  0  0
 22 23  1  0  0  0  0
 23 24  2  0  0  0  0
 26 25  1  1  0  0  0
 26 34  1  0  0  0  0
 26 28  1  0  0  0  0
 27 28  2  0  0  0  0
 28 29  1  0  0  0  0
 29 30  1  0  0  0  0
 30 31  1  0  0  0  0
 31 33  2  0  0  0  0
 31 32  1  0  0  0  0
 34 35  1  0  0  0  0
 35 36  2  0  0  0  0
 35 37  1  0  0  0  0
 37 38  1  0  0  0  0
 38 40  1  0  0  0  0
 40 39  1  6  0  0  0
 40 41  1  0  0  0  0
 41 43  2  0  0  0  0
 41 42  1  0  0  0  0
M  END
>  <MODEL>
      11

>  <COMPND>
    UNNAMED

>  <AUTHOR>
    GENERATED BY OPEN BABEL 2.4.90

>  <MASTER>
        0    0    0    0    0    0    0    0   43    0   43    0

