__12gs_A_rec_3ie3_gsh_lig_min.pdb
 OpenBabel10191907273D

 20 19  0  0  1  0  0  0  0  0999 V2000
   20.7040    3.9860   27.4040 C   0  0  0  0  0  0  0  0  0  0  0  0
   21.8640    3.4580   26.9300 O   0  0  0  0  0  0  0  0  0  0  0  0
   20.6400    4.6360   28.5290 N   0  0  0  0  0  0  0  0  0  0  0  0
   19.3940    3.8210   26.6650 C   0  0  0  0  0  0  0  0  0  0  0  0
   19.5260    3.0310   25.3700 C   0  0  0  0  0  0  0  0  0  0  0  0
   18.4340    1.5080   23.7380 N   0  0  0  0  0  0  0  0  0  0  0  0
   18.2600    2.3530   24.8720 C   0  0  2  0  0  0  0  0  0  0  0  0
   17.1020    3.3080   24.7120 C   0  0  0  0  0  0  0  0  0  0  0  0
   16.4660    3.6780   25.6410 O   0  0  0  0  0  0  0  0  0  0  0  0
   16.8040    3.6630   23.6100 O   0  0  0  0  0  0  0  0  0  0  0  0
   21.7840    5.0700   29.2570 C   0  0  2  0  0  0  0  0  0  0  0  0
   21.7220    4.5480   30.6660 C   0  0  0  0  0  0  0  0  0  0  0  0
   20.5630    4.6680   31.3360 O   0  0  0  0  0  0  0  0  0  0  0  0
   22.8190    4.0500   31.1630 N   0  0  0  0  0  0  0  0  0  0  0  0
   22.7740    3.5000   32.5140 C   0  0  0  0  0  0  0  0  0  0  0  0
   23.3810    2.1440   32.7940 C   0  0  0  0  0  0  0  0  0  0  0  0
   23.6410    1.8970   33.9430 O   0  0  0  0  0  0  0  0  0  0  0  0
   23.6400    1.3790   31.8920 O   0  0  0  0  0  0  0  0  0  0  0  0
   21.9000    6.5770   29.2620 C   0  0  0  0  0  0  0  0  0  0  0  0
   22.5020    7.2880   27.7020 S   0  0  0  0  0  0  0  0  0  0  0  0
  1  2  2  0  0  0  0
  1  4  1  0  0  0  0
  1  3  1  0  0  0  0
  3 11  1  0  0  0  0
  4  5  1  0  0  0  0
  5  7  1  0  0  0  0
  7  6  1  6  0  0  0
  7  8  1  0  0  0  0
  8 10  2  0  0  0  0
  8  9  1  0  0  0  0
 11 19  1  1  0  0  0
 11 12  1  0  0  0  0
 12 14  1  0  0  0  0
 12 13  2  0  0  0  0
 14 15  1  0  0  0  0
 15 16  1  0  0  0  0
 16 18  2  0  0  0  0
 16 17  1  0  0  0  0
 19 20  1  0  0  0  0
M  END
>  <COMPND>
    UNNAMED

>  <AUTHOR>
    GENERATED BY OPEN BABEL 2.4.90

>  <MASTER>
        0    0    0    0    0    0    0    0   20    0   20    0

