__12gs_A_rec_10gs_vww_lig_min.pdb
 OpenBabel10191907103D

 33 34  0  0  1  0  0  0  0  0999 V2000
   21.5760    5.1270   29.3320 C   0  0  2  0  0  0  0  0  0  0  0  0
   20.5740    4.0800   27.3610 C   0  0  0  0  0  0  0  0  0  0  0  0
   21.4440    4.5040   26.6020 O   0  0  0  0  0  0  0  0  0  0  0  0
   20.5730    4.3010   28.6720 N   0  0  0  0  0  0  0  0  0  0  0  0
   19.4450    3.2190   26.8520 C   0  0  0  0  0  0  0  0  0  0  0  0
   19.4250    3.0770   25.3420 C   0  0  0  0  0  0  0  0  0  0  0  0
   18.5090    1.5740   23.6020 N   0  0  0  0  0  0  0  0  0  0  0  0
   18.1830    2.3440   24.8320 C   0  0  2  0  0  0  0  0  0  0  0  0
   17.0450    3.3410   24.5760 C   0  0  0  0  0  0  0  0  0  0  0  0
   16.4890    3.8850   25.5540 O   0  0  0  0  0  0  0  0  0  0  0  0
   16.7110    3.5530   23.3940 O   0  0  0  0  0  0  0  0  0  0  0  0
   21.8350    4.6360   30.7440 C   0  0  0  0  0  0  0  0  0  0  0  0
   20.9080    4.4400   31.5290 O   0  0  0  0  0  0  0  0  0  0  0  0
   23.1130    4.4840   31.0630 N   0  0  0  0  0  0  0  0  0  0  0  0
   23.5460    4.0690   32.3840 C   0  0  2  0  0  0  0  0  0  0  0  0
   24.7120    4.8670   32.8700 C   0  0  0  0  0  0  0  0  0  0  0  0
   25.8720    4.9750   32.1120 C   0  0  0  0  0  0  0  0  0  0  0  0
   26.9260    5.7790   32.5330 C   0  0  0  0  0  0  0  0  0  0  0  0
   26.8230    6.4850   33.7240 C   0  0  0  0  0  0  0  0  0  0  0  0
   25.6700    6.3800   34.4900 C   0  0  0  0  0  0  0  0  0  0  0  0
   24.6230    5.5740   34.0610 C   0  0  0  0  0  0  0  0  0  0  0  0
   23.6840    2.5560   32.5480 C   0  0  0  0  0  0  0  0  0  0  0  0
   23.3900    2.0740   33.6590 O   0  0  0  0  0  0  0  0  0  0  0  0
   24.0730    1.8710   31.5780 O   0  0  0  0  0  0  0  0  0  0  0  0
   21.0830    6.5700   29.4360 C   0  0  0  0  0  0  0  0  0  0  0  0
   21.9220    7.7540   28.3950 S   0  0  0  0  0  0  0  0  0  0  0  0
   23.5660    7.7280   29.1390 C   0  0  0  0  0  0  0  0  0  0  0  0
   23.7290    8.6890   30.2870 C   0  0  0  0  0  0  0  0  0  0  0  0
   24.1490    8.2330   31.5330 C   0  0  0  0  0  0  0  0  0  0  0  0
   23.4630   10.0470   30.1240 C   0  0  0  0  0  0  0  0  0  0  0  0
   24.3020    9.1110   32.6010 C   0  0  0  0  0  0  0  0  0  0  0  0
   23.6130   10.9360   31.1890 C   0  0  0  0  0  0  0  0  0  0  0  0
   24.0330   10.4670   32.4280 C   0  0  0  0  0  0  0  0  0  0  0  0
  1  4  1  0  0  0  0
  1 25  1  1  0  0  0
  1 12  1  0  0  0  0
  2  3  2  0  0  0  0
  2  5  1  0  0  0  0
  2  4  1  0  0  0  0
  5  6  1  0  0  0  0
  6  8  1  0  0  0  0
  8  7  1  6  0  0  0
  8  9  1  0  0  0  0
  9 11  2  0  0  0  0
  9 10  1  0  0  0  0
 12 14  1  0  0  0  0
 12 13  2  0  0  0  0
 15 14  1  6  0  0  0
 15 22  1  0  0  0  0
 15 16  1  0  0  0  0
 16 17  2  0  0  0  0
 16 21  1  0  0  0  0
 17 18  1  0  0  0  0
 18 19  2  0  0  0  0
 19 20  1  0  0  0  0
 20 21  2  0  0  0  0
 22 24  2  0  0  0  0
 22 23  1  0  0  0  0
 25 26  1  0  0  0  0
 26 27  1  0  0  0  0
 27 28  1  0  0  0  0
 28 30  2  0  0  0  0
 28 29  1  0  0  0  0
 29 31  2  0  0  0  0
 30 32  1  0  0  0  0
 31 33  1  0  0  0  0
 32 33  2  0  0  0  0
M  END
>  <COMPND>
    UNNAMED

>  <AUTHOR>
    GENERATED BY OPEN BABEL 2.4.90

>  <MASTER>
        0    0    0    0    0    0    0    0   33    0   33    0

