__12gs_A_rec_20gs_cbd_lig_min.pdb
 OpenBabel10191907473D

 22 24  0  0  0  0  0  0  0  0999 V2000
   23.7960    4.8570   25.6950 C   0  0  0  0  0  0  0  0  0  0  0  0
   22.9680    5.8410   26.2490 C   0  0  0  0  0  0  0  0  0  0  0  0
   21.5270    5.9470   25.7210 N   0  0  0  0  0  0  0  0  0  0  0  0
   23.4880    6.6740   27.2640 C   0  0  0  0  0  0  0  0  0  0  0  0
   22.6740    7.7190   27.9030 C   0  0  0  0  0  0  0  0  0  0  0  0
   21.4830    7.8310   27.4840 O   0  0  0  0  0  0  0  0  0  0  0  0
   23.1340    8.6240   28.9740 C   0  0  0  0  0  0  0  0  0  0  0  0
   22.3010    9.6350   29.5660 C   0  0  0  0  0  0  0  0  0  0  0  0
   22.8290   10.4530   30.5910 C   0  0  0  0  0  0  0  0  0  0  0  0
   24.1560   10.2990   31.0380 C   0  0  0  0  0  0  0  0  0  0  0  0
   25.0000    9.3080   30.4670 C   0  0  0  0  0  0  0  0  0  0  0  0
   24.4960    8.4660   29.4340 C   0  0  0  0  0  0  0  0  0  0  0  0
   25.3040    7.4230   28.7970 C   0  0  0  0  0  0  0  0  0  0  0  0
   26.4810    7.2840   29.2030 O   0  0  0  0  0  0  0  0  0  0  0  0
   24.8690    6.4960   27.7080 C   0  0  0  0  0  0  0  0  0  0  0  0
   25.6930    5.4670   27.0940 C   0  0  0  0  0  0  0  0  0  0  0  0
   25.1510    4.6360   26.0760 C   0  0  0  0  0  0  0  0  0  0  0  0
   27.0940    5.2320   27.4870 N   0  0  0  0  0  0  0  0  0  0  0  0
   23.1060    3.8160   24.4740 S   0  0  0  0  0  0  0  0  0  0  0  0
   22.4310    4.6410   23.3830 O   0  0  0  0  0  0  0  0  0  0  0  0
   22.1180    3.0560   25.3190 O   0  0  0  0  0  0  0  0  0  0  0  0
   24.3470    3.1480   23.8510 O   0  0  0  0  0  0  0  0  0  0  0  0
  1 19  1  0  0  0  0
  1  2  2  0  0  0  0
  1 17  1  0  0  0  0
  2  3  1  0  0  0  0
  2  4  1  0  0  0  0
  4 15  2  0  0  0  0
  4  5  1  0  0  0  0
  5  6  2  0  0  0  0
  5  7  1  0  0  0  0
  7  8  2  0  0  0  0
  7 12  1  0  0  0  0
  8  9  1  0  0  0  0
  9 10  2  0  0  0  0
 10 11  1  0  0  0  0
 11 12  2  0  0  0  0
 12 13  1  0  0  0  0
 13 15  1  0  0  0  0
 13 14  2  0  0  0  0
 15 16  1  0  0  0  0
 16 17  2  0  0  0  0
 16 18  1  0  0  0  0
 19 20  1  0  0  0  0
 19 22  1  0  0  0  0
 19 21  1  0  0  0  0
M  END
>  <COMPND>
    UNNAMED

>  <AUTHOR>
    GENERATED BY OPEN BABEL 2.4.90

>  <MASTER>
        0    0    0    0    0    0    0    0   22    0   22    0

