__13gs_A_rec_2pgt_gpr_lig_min.pdb
 OpenBabel10191908373D

 35 37  0  0  1  0  0  0  0  0999 V2000
   21.6710    4.7370   28.8140 C   0  0  2  0  0  0  0  0  0  0  0  0
   20.5400    3.5080   26.9890 C   0  0  0  0  0  0  0  0  0  0  0  0
   21.5930    3.0360   26.4790 O   0  0  0  0  0  0  0  0  0  0  0  0
   20.4680    4.2880   28.0710 N   0  0  0  0  0  0  0  0  0  0  0  0
   19.2840    3.1130   26.3290 C   0  0  0  0  0  0  0  0  0  0  0  0
   19.4070    2.6370   24.9230 C   0  0  0  0  0  0  0  0  0  0  0  0
   18.3080    1.0450   23.3050 N   0  0  0  0  0  0  0  0  0  0  0  0
   18.0620    2.0420   24.4450 C   0  0  2  0  0  0  0  0  0  0  0  0
   17.1040    3.1500   24.0500 C   0  0  0  0  0  0  0  0  0  0  0  0
   16.4260    3.8550   24.8430 O   0  0  0  0  0  0  0  0  0  0  0  0
   16.8260    3.2010   22.7240 O   0  0  0  0  0  0  0  0  0  0  0  0
   21.4990    4.2600   30.2970 C   0  0  0  0  0  0  0  0  0  0  0  0
   20.4930    4.5910   30.8810 O   0  0  0  0  0  0  0  0  0  0  0  0
   22.4380    3.5590   30.8170 N   0  0  0  0  0  0  0  0  0  0  0  0
   22.4040    3.3170   32.2810 C   0  0  0  0  0  0  0  0  0  0  0  0
   23.1870    2.1080   32.6110 C   0  0  0  0  0  0  0  0  0  0  0  0
   23.7420    1.8320   33.6990 O   0  0  0  0  0  0  0  0  0  0  0  0
   23.3800    1.1980   31.6490 O   0  0  0  0  0  0  0  0  0  0  0  0
   21.8330    6.2850   28.8010 C   0  0  0  0  0  0  0  0  0  0  0  0
   21.0900    7.0430   27.3770 S   0  0  0  0  0  0  0  0  0  0  0  0
   22.4580    7.9440   27.0610 C   0  0  2  0  0  0  0  0  0  0  0  0
   23.8100    7.3380   27.1660 C   0  0  0  0  0  0  0  0  0  0  0  0
   24.2570    6.4370   26.1490 C   0  0  0  0  0  0  0  0  0  0  0  0
   25.5030    5.8710   26.2360 C   0  0  0  0  0  0  0  0  0  0  0  0
   26.3480    6.2170   27.3130 C   0  0  0  0  0  0  0  0  0  0  0  0
   25.9640    7.1310   28.3060 C   0  0  0  0  0  0  0  0  0  0  0  0
   24.6580    7.6500   28.2670 C   0  0  0  0  0  0  0  0  0  0  0  0
   24.1750    8.6580   29.2800 C   0  0  0  0  0  0  0  0  0  0  0  0
   24.7850    8.7670   30.5680 C   0  0  0  0  0  0  0  0  0  0  0  0
   24.3310    9.7660   31.4390 C   0  0  0  0  0  0  0  0  0  0  0  0
   23.2930   10.6220   31.0790 C   0  0  0  0  0  0  0  0  0  0  0  0
   22.6680   10.4820   29.8350 C   0  0  0  0  0  0  0  0  0  0  0  0
   23.1210    9.4910   28.9690 C   0  0  0  0  0  0  0  0  0  0  0  0
   22.4020    9.3710   27.6190 C   0  0  1  0  0  0  0  0  0  0  0  0
   23.2720   10.2140   26.7890 O   0  0  0  0  0  0  0  0  0  0  0  0
  1  4  1  0  0  0  0
  1 19  1  1  0  0  0
  1 12  1  0  0  0  0
  2  3  2  0  0  0  0
  2  5  1  0  0  0  0
  2  4  1  0  0  0  0
  5  6  1  0  0  0  0
  6  8  1  0  0  0  0
  8  7  1  6  0  0  0
  8  9  1  0  0  0  0
  9 11  2  0  0  0  0
  9 10  1  0  0  0  0
 12 14  1  0  0  0  0
 12 13  2  0  0  0  0
 14 15  1  0  0  0  0
 15 16  1  0  0  0  0
 16 18  2  0  0  0  0
 16 17  1  0  0  0  0
 19 20  1  0  0  0  0
 21 20  1  1  0  0  0
 21 22  1  0  0  0  0
 21 34  1  0  0  0  0
 22 23  2  0  0  0  0
 22 27  1  0  0  0  0
 23 24  1  0  0  0  0
 24 25  2  0  0  0  0
 25 26  1  0  0  0  0
 26 27  2  0  0  0  0
 27 28  1  0  0  0  0
 28 33  2  0  0  0  0
 28 29  1  0  0  0  0
 29 30  2  0  0  0  0
 30 31  1  0  0  0  0
 31 32  2  0  0  0  0
 32 33  1  0  0  0  0
 33 34  1  0  0  0  0
 34 35  1  6  0  0  0
M  END
>  <COMPND>
    UNNAMED

>  <AUTHOR>
    GENERATED BY OPEN BABEL 2.4.90

>  <MASTER>
        0    0    0    0    0    0    0    0   35    0   35    0

