__13gs_A_rec_3gus_gsh_lig_docked.pdb
 OpenBabel10191910273D

 20 19  0  0  1  0  0  0  0  0999 V2000
   20.8320    3.7320   27.0610 C   0  0  0  0  0  0  0  0  0  0  0  0
   22.0970    3.3740   26.7920 O   0  0  0  0  0  0  0  0  0  0  0  0
   20.5060    4.4670   28.1090 N   0  0  0  0  0  0  0  0  0  0  0  0
   19.7190    3.3210   26.1410 C   0  0  0  0  0  0  0  0  0  0  0  0
   18.4980    2.9220   26.9110 C   0  0  0  0  0  0  0  0  0  0  0  0
   18.2930    0.9460   25.5400 N   0  0  0  0  0  0  0  0  0  0  0  0
   17.5920    2.0940   26.0250 C   0  0  2  0  0  0  0  0  0  0  0  0
   17.0700    2.9150   24.8540 C   0  0  0  0  0  0  0  0  0  0  0  0
   16.4720    3.9680   25.1040 O   0  0  0  0  0  0  0  0  0  0  0  0
   17.3520    2.5100   23.7290 O   0  0  0  0  0  0  0  0  0  0  0  0
   21.4640    5.1950   28.9650 C   0  0  2  0  0  0  0  0  0  0  0  0
   21.4260    4.5400   30.3220 C   0  0  0  0  0  0  0  0  0  0  0  0
   20.3460    4.6240   31.0640 O   0  0  0  0  0  0  0  0  0  0  0  0
   22.4330    3.8920   30.8010 N   0  0  0  0  0  0  0  0  0  0  0  0
   22.4760    3.4120   32.1710 C   0  0  0  0  0  0  0  0  0  0  0  0
   23.2220    2.1160   32.3400 C   0  0  0  0  0  0  0  0  0  0  0  0
   23.5420    1.4550   31.3690 O   0  0  0  0  0  0  0  0  0  0  0  0
   23.4970    1.7180   33.4700 O   0  0  0  0  0  0  0  0  0  0  0  0
   20.8740    6.5420   28.9580 C   0  0  0  0  0  0  0  0  0  0  0  0
   22.0230    7.9210   29.1570 S   0  0  0  0  0  0  0  0  0  0  0  0
  1  2  2  0  0  0  0
  1  4  1  0  0  0  0
  1  3  1  0  0  0  0
  3 11  1  0  0  0  0
  4  5  1  0  0  0  0
  5  7  1  0  0  0  0
  7  6  1  6  0  0  0
  7  8  1  0  0  0  0
  8  9  2  0  0  0  0
  8 10  1  0  0  0  0
 11 19  1  1  0  0  0
 11 12  1  0  0  0  0
 12 14  1  0  0  0  0
 12 13  2  0  0  0  0
 14 15  1  0  0  0  0
 15 16  1  0  0  0  0
 16 17  2  0  0  0  0
 16 18  1  0  0  0  0
 19 20  1  0  0  0  0
M  END
>  <MODEL>
       7

>  <COMPND>
    UNNAMED

>  <AUTHOR>
    GENERATED BY OPEN BABEL 2.4.90

>  <MASTER>
        0    0    0    0    0    0    0    0   20    0   20    0

