__13gs_A_rec_1px6_gsh_lig_min.pdb
 OpenBabel10191907533D

 20 19  0  0  1  0  0  0  0  0999 V2000
   20.4550    3.7100   27.2940 C   0  0  0  0  0  0  0  0  0  0  0  0
   21.5990    3.4790   26.8320 O   0  0  0  0  0  0  0  0  0  0  0  0
   20.2390    4.4920   28.3530 N   0  0  0  0  0  0  0  0  0  0  0  0
   19.1920    3.1140   26.6890 C   0  0  0  0  0  0  0  0  0  0  0  0
   19.3010    2.7450   25.2050 C   0  0  0  0  0  0  0  0  0  0  0  0
   18.4380    1.0880   23.6000 N   0  0  0  0  0  0  0  0  0  0  0  0
   18.0480    2.0670   24.6490 C   0  0  2  0  0  0  0  0  0  0  0  0
   17.0750    3.1150   24.0650 C   0  0  0  0  0  0  0  0  0  0  0  0
   16.4480    3.8590   24.8550 O   0  0  0  0  0  0  0  0  0  0  0  0
   16.9460    3.1890   22.8260 O   0  0  0  0  0  0  0  0  0  0  0  0
   21.3140    5.1600   29.0740 C   0  0  2  0  0  0  0  0  0  0  0  0
   21.4000    4.6170   30.5100 C   0  0  0  0  0  0  0  0  0  0  0  0
   20.3820    4.5380   31.2160 O   0  0  0  0  0  0  0  0  0  0  0  0
   22.6260    4.2600   30.9240 N   0  0  0  0  0  0  0  0  0  0  0  0
   22.8780    3.7460   32.2630 C   0  0  0  0  0  0  0  0  0  0  0  0
   23.3100    2.3060   32.3730 C   0  0  0  0  0  0  0  0  0  0  0  0
   23.4780    1.8330   33.5200 O   0  0  0  0  0  0  0  0  0  0  0  0
   23.4770    1.6450   31.3250 O   0  0  0  0  0  0  0  0  0  0  0  0
   21.0430    6.6790   29.1020 C   0  0  0  0  0  0  0  0  0  0  0  0
   22.1780    7.6340   28.0080 S   0  0  0  0  0  0  0  0  0  0  0  0
  1  2  2  0  0  0  0
  1  4  1  0  0  0  0
  1  3  1  0  0  0  0
  3 11  1  0  0  0  0
  4  5  1  0  0  0  0
  5  7  1  0  0  0  0
  7  6  1  6  0  0  0
  7  8  1  0  0  0  0
  8 10  2  0  0  0  0
  8  9  1  0  0  0  0
 11 19  1  1  0  0  0
 11 12  1  0  0  0  0
 12 14  1  0  0  0  0
 12 13  2  0  0  0  0
 14 15  1  0  0  0  0
 15 16  1  0  0  0  0
 16 18  2  0  0  0  0
 16 17  1  0  0  0  0
 19 20  1  0  0  0  0
M  END
>  <COMPND>
    UNNAMED

>  <AUTHOR>
    GENERATED BY OPEN BABEL 2.4.90

>  <MASTER>
        0    0    0    0    0    0    0    0   20    0   20    0

