__13gs_A_rec_3ie3_gsh_lig_min.pdb
 OpenBabel10191907243D

 20 19  0  0  1  0  0  0  0  0999 V2000
   20.4030    3.6660   27.3080 C   0  0  0  0  0  0  0  0  0  0  0  0
   21.6290    3.4430   26.7670 O   0  0  0  0  0  0  0  0  0  0  0  0
   20.2360    4.3380   28.4080 N   0  0  0  0  0  0  0  0  0  0  0  0
   19.1420    3.1150   26.6770 C   0  0  0  0  0  0  0  0  0  0  0  0
   19.3050    2.7690   25.2030 C   0  0  0  0  0  0  0  0  0  0  0  0
   18.4290    1.0870   23.5980 N   0  0  0  0  0  0  0  0  0  0  0  0
   18.1080    2.1090   24.5380 C   0  0  2  0  0  0  0  0  0  0  0  0
   17.1080    3.1020   23.9980 C   0  0  0  0  0  0  0  0  0  0  0  0
   16.4510    3.7780   24.7170 O   0  0  0  0  0  0  0  0  0  0  0  0
   16.9580    3.1740   22.8150 O   0  0  0  0  0  0  0  0  0  0  0  0
   21.2630    5.1030   29.0310 C   0  0  2  0  0  0  0  0  0  0  0  0
   21.4680    4.6310   30.4430 C   0  0  0  0  0  0  0  0  0  0  0  0
   20.3900    4.5260   31.2400 O   0  0  0  0  0  0  0  0  0  0  0  0
   22.6940    4.3960   30.8190 N   0  0  0  0  0  0  0  0  0  0  0  0
   22.9150    3.8980   32.1730 C   0  0  0  0  0  0  0  0  0  0  0  0
   23.3160    2.4570   32.3870 C   0  0  0  0  0  0  0  0  0  0  0  0
   23.6440    2.1480   33.5030 O   0  0  0  0  0  0  0  0  0  0  0  0
   23.3560    1.6770   31.4620 O   0  0  0  0  0  0  0  0  0  0  0  0
   20.9420    6.5800   29.0140 C   0  0  0  0  0  0  0  0  0  0  0  0
   22.1190    7.5930   28.0700 S   0  0  0  0  0  0  0  0  0  0  0  0
  1  2  2  0  0  0  0
  1  4  1  0  0  0  0
  1  3  1  0  0  0  0
  3 11  1  0  0  0  0
  4  5  1  0  0  0  0
  5  7  1  0  0  0  0
  7  6  1  6  0  0  0
  7  8  1  0  0  0  0
  8 10  2  0  0  0  0
  8  9  1  0  0  0  0
 11 19  1  1  0  0  0
 11 12  1  0  0  0  0
 12 14  1  0  0  0  0
 12 13  2  0  0  0  0
 14 15  1  0  0  0  0
 15 16  1  0  0  0  0
 16 18  2  0  0  0  0
 16 17  1  0  0  0  0
 19 20  1  0  0  0  0
M  END
>  <COMPND>
    UNNAMED

>  <AUTHOR>
    GENERATED BY OPEN BABEL 2.4.90

>  <MASTER>
        0    0    0    0    0    0    0    0   20    0   20    0

