__18gs_A_rec_3kmo_gsh_lig_docked.pdb
 OpenBabel10191909333D

 20 19  0  0  1  0  0  0  0  0999 V2000
   21.1460    4.1330   27.3390 C   0  0  0  0  0  0  0  0  0  0  0  0
   22.3750    3.4880   26.9750 O   0  0  0  0  0  0  0  0  0  0  0  0
   20.9350    4.7950   28.4920 N   0  0  0  0  0  0  0  0  0  0  0  0
   19.9480    4.1900   26.3990 C   0  0  0  0  0  0  0  0  0  0  0  0
   18.8730    3.1600   26.7230 C   0  0  0  0  0  0  0  0  0  0  0  0
   18.0800    1.1170   25.6450 N   0  0  0  0  0  0  0  0  0  0  0  0
   18.2810    2.5450   25.4650 C   0  0  1  0  0  0  0  0  0  0  0  0
   17.0530    3.2980   24.9800 C   0  0  0  0  0  0  0  0  0  0  0  0
   16.4130    3.9690   25.8200 O   0  0  0  0  0  0  0  0  0  0  0  0
   16.6050    3.2700   23.7860 O   0  0  0  0  0  0  0  0  0  0  0  0
   22.0150    5.3230   29.2930 C   0  0  2  0  0  0  0  0  0  0  0  0
   21.9380    4.6600   30.6600 C   0  0  0  0  0  0  0  0  0  0  0  0
   20.6760    4.5490   31.2710 O   0  0  0  0  0  0  0  0  0  0  0  0
   23.0860    4.2180   31.2180 N   0  0  0  0  0  0  0  0  0  0  0  0
   23.2590    3.9290   32.6160 C   0  0  0  0  0  0  0  0  0  0  0  0
   23.6360    2.4750   32.8350 C   0  0  0  0  0  0  0  0  0  0  0  0
   23.6770    1.6250   31.8880 O   0  0  0  0  0  0  0  0  0  0  0  0
   23.8910    2.0970   34.0010 O   0  0  0  0  0  0  0  0  0  0  0  0
   21.9660    6.8620   29.4040 C   0  0  0  0  0  0  0  0  0  0  0  0
   22.2100    7.7310   27.8200 S   0  0  0  0  0  0  0  0  0  0  0  0
  1  2  2  0  0  0  0
  1  4  1  0  0  0  0
  1  3  1  0  0  0  0
  3 11  1  0  0  0  0
  4  5  1  0  0  0  0
  5  7  1  0  0  0  0
  7  6  1  1  0  0  0
  7  8  1  0  0  0  0
  8  9  2  0  0  0  0
  8 10  1  0  0  0  0
 11 19  1  1  0  0  0
 11 12  1  0  0  0  0
 12 14  1  0  0  0  0
 12 13  2  0  0  0  0
 14 15  1  0  0  0  0
 15 16  1  0  0  0  0
 16 17  2  0  0  0  0
 16 18  1  0  0  0  0
 19 20  1  0  0  0  0
M  END
>  <MODEL>
       2

>  <COMPND>
    UNNAMED

>  <AUTHOR>
    GENERATED BY OPEN BABEL 2.4.90

>  <MASTER>
        0    0    0    0    0    0    0    0   20    0   20    0

