__18gs_A_rec_3ie3_gsh_lig_min.pdb
 OpenBabel10191907553D

 20 19  0  0  1  0  0  0  0  0999 V2000
   20.7310    4.1670   27.3660 C   0  0  0  0  0  0  0  0  0  0  0  0
   21.9170    3.9560   26.7360 O   0  0  0  0  0  0  0  0  0  0  0  0
   20.6560    4.6440   28.5730 N   0  0  0  0  0  0  0  0  0  0  0  0
   19.4100    3.8270   26.7100 C   0  0  0  0  0  0  0  0  0  0  0  0
   19.5630    3.0540   25.4070 C   0  0  0  0  0  0  0  0  0  0  0  0
   18.5180    1.4980   23.7770 N   0  0  0  0  0  0  0  0  0  0  0  0
   18.3140    2.3560   24.8960 C   0  0  2  0  0  0  0  0  0  0  0  0
   17.1480    3.2940   24.7050 C   0  0  0  0  0  0  0  0  0  0  0  0
   16.4890    3.6630   25.6170 O   0  0  0  0  0  0  0  0  0  0  0  0
   16.8690    3.6370   23.5940 O   0  0  0  0  0  0  0  0  0  0  0  0
   21.7610    5.2120   29.2690 C   0  0  2  0  0  0  0  0  0  0  0  0
   21.8170    4.6700   30.6700 C   0  0  0  0  0  0  0  0  0  0  0  0
   20.6580    4.4970   31.3300 O   0  0  0  0  0  0  0  0  0  0  0  0
   22.9970    4.4440   31.1740 N   0  0  0  0  0  0  0  0  0  0  0  0
   23.0760    3.8810   32.5170 C   0  0  0  0  0  0  0  0  0  0  0  0
   23.5050    2.4430   32.7040 C   0  0  0  0  0  0  0  0  0  0  0  0
   23.5690    2.0430   33.8370 O   0  0  0  0  0  0  0  0  0  0  0  0
   23.8220    1.7590   31.7570 O   0  0  0  0  0  0  0  0  0  0  0  0
   21.6830    6.7220   29.2940 C   0  0  0  0  0  0  0  0  0  0  0  0
   22.3440    7.5310   27.8080 S   0  0  0  0  0  0  0  0  0  0  0  0
  1  2  2  0  0  0  0
  1  4  1  0  0  0  0
  1  3  1  0  0  0  0
  3 11  1  0  0  0  0
  4  5  1  0  0  0  0
  5  7  1  0  0  0  0
  7  6  1  6  0  0  0
  7  8  1  0  0  0  0
  8 10  2  0  0  0  0
  8  9  1  0  0  0  0
 11 19  1  1  0  0  0
 11 12  1  0  0  0  0
 12 14  1  0  0  0  0
 12 13  2  0  0  0  0
 14 15  1  0  0  0  0
 15 16  1  0  0  0  0
 16 18  2  0  0  0  0
 16 17  1  0  0  0  0
 19 20  1  0  0  0  0
M  END
>  <COMPND>
    UNNAMED

>  <AUTHOR>
    GENERATED BY OPEN BABEL 2.4.90

>  <MASTER>
        0    0    0    0    0    0    0    0   20    0   20    0

