__19gs_A_rec_5djl_gsh_lig_docked.pdb
 OpenBabel10191909453D

 20 19  0  0  1  0  0  0  0  0999 V2000
   21.2600    3.6150   26.7200 C   0  0  0  0  0  0  0  0  0  0  0  0
   22.2660    2.9220   26.5790 O   0  0  0  0  0  0  0  0  0  0  0  0
   21.2270    4.7240   27.6630 N   0  0  0  0  0  0  0  0  0  0  0  0
   19.9970    3.3530   25.8910 C   0  0  0  0  0  0  0  0  0  0  0  0
   18.7590    3.0760   26.7370 C   0  0  0  0  0  0  0  0  0  0  0  0
   18.3920    1.1190   25.3640 N   0  0  0  0  0  0  0  0  0  0  0  0
   17.7530    2.2510   25.9170 C   0  0  2  0  0  0  0  0  0  0  0  0
   17.1700    3.0980   24.7790 C   0  0  0  0  0  0  0  0  0  0  0  0
   16.5050    4.1300   25.0660 O   0  0  0  0  0  0  0  0  0  0  0  0
   17.3440    2.7820   23.5740 O   0  0  0  0  0  0  0  0  0  0  0  0
   22.3660    5.0630   28.4840 C   0  0  2  0  0  0  0  0  0  0  0  0
   22.1600    4.5770   29.9090 C   0  0  0  0  0  0  0  0  0  0  0  0
   21.0320    4.4530   30.3790 O   0  0  0  0  0  0  0  0  0  0  0  0
   23.3360    4.2830   30.7180 N   0  0  0  0  0  0  0  0  0  0  0  0
   23.2260    3.8330   32.0890 C   0  0  0  0  0  0  0  0  0  0  0  0
   23.3120    2.3310   32.1740 C   0  0  0  0  0  0  0  0  0  0  0  0
   23.5660    1.6490   31.1530 O   0  0  0  0  0  0  0  0  0  0  0  0
   23.1370    1.7650   33.2810 O   0  0  0  0  0  0  0  0  0  0  0  0
   22.5340    6.5570   28.5140 C   0  0  0  0  0  0  0  0  0  0  0  0
   21.6940    7.3320   27.1540 S   0  0  0  0  0  0  0  0  0  0  0  0
  1  2  2  0  0  0  0
  1  4  1  0  0  0  0
  1  3  1  0  0  0  0
  3 11  1  0  0  0  0
  4  5  1  0  0  0  0
  5  7  1  0  0  0  0
  7  6  1  6  0  0  0
  7  8  1  0  0  0  0
  8  9  2  0  0  0  0
  8 10  1  0  0  0  0
 11 19  1  1  0  0  0
 11 12  1  0  0  0  0
 12 14  1  0  0  0  0
 12 13  2  0  0  0  0
 14 15  1  0  0  0  0
 15 16  1  0  0  0  0
 16 17  2  0  0  0  0
 16 18  1  0  0  0  0
 19 20  1  0  0  0  0
M  END
>  <MODEL>
      18

>  <COMPND>
    UNNAMED

>  <AUTHOR>
    GENERATED BY OPEN BABEL 2.4.90

>  <MASTER>
        0    0    0    0    0    0    0    0   20    0   20    0

