__19gs_B_rec_19gs_gsh_lig_min.pdb
 OpenBabel10191908293D

 20 19  0  0  1  0  0  0  0  0999 V2000
   20.5350    3.8110   27.3030 C   0  0  0  0  0  0  0  0  0  0  0  0
   21.6300    3.3660   26.9450 O   0  0  0  0  0  0  0  0  0  0  0  0
   20.3950    4.7600   28.2220 N   0  0  0  0  0  0  0  0  0  0  0  0
   19.2380    3.3070   26.7000 C   0  0  0  0  0  0  0  0  0  0  0  0
   19.3650    2.9300   25.2440 C   0  0  0  0  0  0  0  0  0  0  0  0
   18.5590    1.2680   23.6060 N   0  0  0  0  0  0  0  0  0  0  0  0
   18.1470    2.1950   24.7010 C   0  0  2  0  0  0  0  0  0  0  0  0
   17.1420    3.2170   24.1840 C   0  0  0  0  0  0  0  0  0  0  0  0
   16.5320    3.9440   24.9990 O   0  0  0  0  0  0  0  0  0  0  0  0
   16.9820    3.2750   22.9510 O   0  0  0  0  0  0  0  0  0  0  0  0
   21.5260    5.3540   28.9140 C   0  0  2  0  0  0  0  0  0  0  0  0
   21.5980    4.7830   30.3260 C   0  0  0  0  0  0  0  0  0  0  0  0
   20.5730    4.5610   30.9650 O   0  0  0  0  0  0  0  0  0  0  0  0
   22.8150    4.5350   30.8010 N   0  0  0  0  0  0  0  0  0  0  0  0
   22.9990    4.0000   32.1370 C   0  0  0  0  0  0  0  0  0  0  0  0
   23.3400    2.5260   32.1220 C   0  0  0  0  0  0  0  0  0  0  0  0
   23.4400    1.9220   33.2140 O   0  0  0  0  0  0  0  0  0  0  0  0
   23.5090    1.9730   31.0130 O   0  0  0  0  0  0  0  0  0  0  0  0
   21.3570    6.8750   28.9650 C   0  0  0  0  0  0  0  0  0  0  0  0
   22.2360    7.7730   27.6470 S   0  0  0  0  0  0  0  0  0  0  0  0
  1  2  2  0  0  0  0
  1  4  1  0  0  0  0
  1  3  1  0  0  0  0
  3 11  1  0  0  0  0
  4  5  1  0  0  0  0
  5  7  1  0  0  0  0
  7  6  1  6  0  0  0
  7  8  1  0  0  0  0
  8 10  2  0  0  0  0
  8  9  1  0  0  0  0
 11 19  1  1  0  0  0
 11 12  1  0  0  0  0
 12 14  1  0  0  0  0
 12 13  2  0  0  0  0
 14 15  1  0  0  0  0
 15 16  1  0  0  0  0
 16 18  2  0  0  0  0
 16 17  1  0  0  0  0
 19 20  1  0  0  0  0
M  END
>  <COMPND>
    UNNAMED

>  <AUTHOR>
    GENERATED BY OPEN BABEL 2.4.90

>  <MASTER>
        0    0    0    0    0    0    0    0   20    0   20    0

