__19gs_A_rec_1aqv_0hg_lig_docked.pdb
 OpenBabel10191909453D

 28 28  0  0  1  0  0  0  0  0999 V2000
   21.7090    5.0490   28.8180 C   0  0  2  0  0  0  0  0  0  0  0  0
   20.9750    4.1590   26.6600 C   0  0  0  0  0  0  0  0  0  0  0  0
   21.7610    4.8820   26.0200 O   0  0  0  0  0  0  0  0  0  0  0  0
   20.8870    4.1670   27.9880 N   0  0  0  0  0  0  0  0  0  0  0  0
   20.0580    3.2060   25.9510 C   0  0  0  0  0  0  0  0  0  0  0  0
   18.6900    3.1460   26.5980 C   0  0  0  0  0  0  0  0  0  0  0  0
   18.3380    1.4540   24.8250 N   0  0  0  0  0  0  0  0  0  0  0  0
   17.6550    2.4030   25.7580 C   0  0  2  0  0  0  0  0  0  0  0  0
   16.8560    3.4010   24.9160 C   0  0  0  0  0  0  0  0  0  0  0  0
   16.6630    3.1690   23.6970 O   0  0  0  0  0  0  0  0  0  0  0  0
   16.5020    4.4540   25.4980 O   0  0  0  0  0  0  0  0  0  0  0  0
   21.7690    4.5060   30.2450 C   0  0  0  0  0  0  0  0  0  0  0  0
   20.7590    4.4670   30.9410 O   0  0  0  0  0  0  0  0  0  0  0  0
   22.9830    4.3050   30.7300 N   0  0  0  0  0  0  0  0  0  0  0  0
   23.1460    3.8040   32.0750 C   0  0  0  0  0  0  0  0  0  0  0  0
   23.2710    2.3000   32.1530 C   0  0  0  0  0  0  0  0  0  0  0  0
   23.6030    1.6510   31.1300 O   0  0  0  0  0  0  0  0  0  0  0  0
   23.0610    1.7760   33.2580 O   0  0  0  0  0  0  0  0  0  0  0  0
   20.9710    6.4360   29.0150 C   0  0  0  0  0  0  0  0  0  0  0  0
   21.8840    7.8670   28.3620 S   0  0  0  0  0  0  0  0  0  0  0  0
   23.4800    7.5990   29.0990 C   0  0  0  0  0  0  0  0  0  0  0  0
   24.3970   11.3200   33.8980 Br  0  0  0  0  0  0  0  0  0  0  0  0
   23.6690    8.4780   30.1830 C   0  0  0  0  0  0  0  0  0  0  0  0
   23.3700    9.8420   30.0860 C   0  0  0  0  0  0  0  0  0  0  0  0
   23.5780   10.7010   31.1800 C   0  0  0  0  0  0  0  0  0  0  0  0
   24.0880   10.2100   32.3910 C   0  0  0  0  0  0  0  0  0  0  0  0
   24.3800    8.8480   32.4810 C   0  0  0  0  0  0  0  0  0  0  0  0
   24.1770    7.9910   31.3950 C   0  0  0  0  0  0  0  0  0  0  0  0
  1  4  1  0  0  0  0
  1 19  1  1  0  0  0
  1 12  1  0  0  0  0
  2  3  2  0  0  0  0
  2  5  1  0  0  0  0
  2  4  1  0  0  0  0
  5  6  1  0  0  0  0
  6  8  1  0  0  0  0
  8  7  1  6  0  0  0
  8  9  1  0  0  0  0
  9 11  2  0  0  0  0
  9 10  1  0  0  0  0
 12 14  1  0  0  0  0
 12 13  2  0  0  0  0
 14 15  1  0  0  0  0
 15 16  1  0  0  0  0
 16 17  2  0  0  0  0
 16 18  1  0  0  0  0
 19 20  1  0  0  0  0
 20 21  1  0  0  0  0
 21 23  1  0  0  0  0
 22 26  1  0  0  0  0
 23 28  2  0  0  0  0
 23 24  1  0  0  0  0
 24 25  2  0  0  0  0
 25 26  1  0  0  0  0
 26 27  2  0  0  0  0
 27 28  1  0  0  0  0
M  END
>  <MODEL>
       3

>  <COMPND>
    UNNAMED

>  <AUTHOR>
    GENERATED BY OPEN BABEL 2.4.90

>  <MASTER>
        0    0    0    0    0    0    0    0   28    0   28    0

