__1aqv_A_rec_1aqv_0hg_lig_min.pdb
 OpenBabel10191908173D

 28 28  0  0  1  0  0  0  0  0999 V2000
   21.3940    4.9330   29.2640 C   0  0  2  0  0  0  0  0  0  0  0  0
   20.2700    4.0880   27.2620 C   0  0  0  0  0  0  0  0  0  0  0  0
   21.1650    4.5050   26.5030 O   0  0  0  0  0  0  0  0  0  0  0  0
   20.2990    4.2400   28.5830 N   0  0  0  0  0  0  0  0  0  0  0  0
   19.0750    3.3640   26.7150 C   0  0  0  0  0  0  0  0  0  0  0  0
   19.2840    2.9270   25.2800 C   0  0  0  0  0  0  0  0  0  0  0  0
   18.5120    1.3760   23.5100 N   0  0  0  0  0  0  0  0  0  0  0  0
   18.0850    2.1900   24.6910 C   0  0  2  0  0  0  0  0  0  0  0  0
   17.0370    3.2000   24.2140 C   0  0  0  0  0  0  0  0  0  0  0  0
   16.2370    3.7010   25.0430 O   0  0  0  0  0  0  0  0  0  0  0  0
   16.9960    3.4090   22.9780 O   0  0  0  0  0  0  0  0  0  0  0  0
   21.4930    4.4470   30.7090 C   0  0  0  0  0  0  0  0  0  0  0  0
   20.4990    4.4200   31.4290 O   0  0  0  0  0  0  0  0  0  0  0  0
   22.7200    4.2820   31.1750 N   0  0  0  0  0  0  0  0  0  0  0  0
   22.9200    3.8360   32.5340 C   0  0  0  0  0  0  0  0  0  0  0  0
   23.3940    2.4060   32.6420 C   0  0  0  0  0  0  0  0  0  0  0  0
   23.6580    1.7590   31.5960 O   0  0  0  0  0  0  0  0  0  0  0  0
   23.5280    1.9430   33.7850 O   0  0  0  0  0  0  0  0  0  0  0  0
   21.0260    6.4620   29.4470 C   0  0  0  0  0  0  0  0  0  0  0  0
   22.2340    7.6130   28.7230 S   0  0  0  0  0  0  0  0  0  0  0  0
   23.6130    7.3670   29.8170 C   0  0  0  0  0  0  0  0  0  0  0  0
   24.1400   12.2740   33.4730 Br  0  0  0  0  0  0  0  0  0  0  0  0
   23.7560    8.4730   30.6780 C   0  0  0  0  0  0  0  0  0  0  0  0
   24.2850    8.3400   31.9670 C   0  0  0  0  0  0  0  0  0  0  0  0
   24.4090    9.4580   32.8110 C   0  0  0  0  0  0  0  0  0  0  0  0
   24.0060   10.7300   32.3780 C   0  0  0  0  0  0  0  0  0  0  0  0
   23.4830   10.8550   31.0900 C   0  0  0  0  0  0  0  0  0  0  0  0
   23.3570    9.7460   30.2500 C   0  0  0  0  0  0  0  0  0  0  0  0
  1  4  1  0  0  0  0
  1 19  1  1  0  0  0
  1 12  1  0  0  0  0
  2  3  2  0  0  0  0
  2  5  1  0  0  0  0
  2  4  1  0  0  0  0
  5  6  1  0  0  0  0
  6  8  1  0  0  0  0
  8  7  1  6  0  0  0
  8  9  1  0  0  0  0
  9 11  2  0  0  0  0
  9 10  1  0  0  0  0
 12 14  1  0  0  0  0
 12 13  2  0  0  0  0
 14 15  1  0  0  0  0
 15 16  1  0  0  0  0
 16 17  2  0  0  0  0
 16 18  1  0  0  0  0
 19 20  1  0  0  0  0
 20 21  1  0  0  0  0
 21 23  1  0  0  0  0
 22 26  1  0  0  0  0
 23 28  2  0  0  0  0
 23 24  1  0  0  0  0
 24 25  2  0  0  0  0
 25 26  1  0  0  0  0
 26 27  2  0  0  0  0
 27 28  1  0  0  0  0
M  END
>  <COMPND>
    UNNAMED

>  <AUTHOR>
    GENERATED BY OPEN BABEL 2.4.90

>  <MASTER>
        0    0    0    0    0    0    0    0   28    0   28    0

