__1aqv_A_rec_19gs_gsh_lig_docked.pdb
 OpenBabel10191911333D

 20 19  0  0  1  0  0  0  0  0999 V2000
   20.5480    4.0160   27.4260 C   0  0  0  0  0  0  0  0  0  0  0  0
   21.6260    3.5740   27.0170 O   0  0  0  0  0  0  0  0  0  0  0  0
   20.4460    4.8880   28.4220 N   0  0  0  0  0  0  0  0  0  0  0  0
   19.2310    3.5980   26.8030 C   0  0  0  0  0  0  0  0  0  0  0  0
   19.3950    2.9040   25.4730 C   0  0  0  0  0  0  0  0  0  0  0  0
   18.4570    1.3180   23.8290 N   0  0  0  0  0  0  0  0  0  0  0  0
   18.1430    2.1660   25.0160 C   0  0  2  0  0  0  0  0  0  0  0  0
   17.0650    3.1870   24.6720 C   0  0  0  0  0  0  0  0  0  0  0  0
   16.1580    3.4240   25.5000 O   0  0  0  0  0  0  0  0  0  0  0  0
   17.1500    3.7420   23.5610 O   0  0  0  0  0  0  0  0  0  0  0  0
   21.6010    5.3940   29.1440 C   0  0  2  0  0  0  0  0  0  0  0  0
   21.6640    4.7200   30.5100 C   0  0  0  0  0  0  0  0  0  0  0  0
   20.6530    4.2470   31.0230 O   0  0  0  0  0  0  0  0  0  0  0  0
   22.8610    4.6700   31.0880 N   0  0  0  0  0  0  0  0  0  0  0  0
   23.0320    4.0600   32.3940 C   0  0  0  0  0  0  0  0  0  0  0  0
   23.2260    2.5620   32.3050 C   0  0  0  0  0  0  0  0  0  0  0  0
   22.4480    1.8170   32.9430 O   0  0  0  0  0  0  0  0  0  0  0  0
   24.1600    2.1310   31.5940 O   0  0  0  0  0  0  0  0  0  0  0  0
   21.4840    6.9110   29.3060 C   0  0  0  0  0  0  0  0  0  0  0  0
   22.9680    7.8380   28.8020 S   0  0  0  0  0  0  0  0  0  0  0  0
  1  2  2  0  0  0  0
  1  4  1  0  0  0  0
  1  3  1  0  0  0  0
  3 11  1  0  0  0  0
  4  5  1  0  0  0  0
  5  7  1  0  0  0  0
  7  6  1  6  0  0  0
  7  8  1  0  0  0  0
  8 10  2  0  0  0  0
  8  9  1  0  0  0  0
 11 19  1  1  0  0  0
 11 12  1  0  0  0  0
 12 14  1  0  0  0  0
 12 13  2  0  0  0  0
 14 15  1  0  0  0  0
 15 16  1  0  0  0  0
 16 18  2  0  0  0  0
 16 17  1  0  0  0  0
 19 20  1  0  0  0  0
M  END
>  <MODEL>
       9

>  <COMPND>
    UNNAMED

>  <AUTHOR>
    GENERATED BY OPEN BABEL 2.4.90

>  <MASTER>
        0    0    0    0    0    0    0    0   20    0   20    0

