__1aqv_A_rec_3ie3_gsh_lig_docked.pdb
 OpenBabel10191911333D

 20 19  0  0  1  0  0  0  0  0999 V2000
   20.7610    4.1390   27.4370 C   0  0  0  0  0  0  0  0  0  0  0  0
   21.8540    3.4620   26.9980 O   0  0  0  0  0  0  0  0  0  0  0  0
   20.7620    4.8320   28.5370 N   0  0  0  0  0  0  0  0  0  0  0  0
   19.4470    4.1030   26.6840 C   0  0  0  0  0  0  0  0  0  0  0  0
   19.3860    3.0080   25.6280 C   0  0  0  0  0  0  0  0  0  0  0  0
   18.0510    1.0490   24.8850 N   0  0  0  0  0  0  0  0  0  0  0  0
   18.0220    2.3760   25.4040 C   0  0  2  0  0  0  0  0  0  0  0  0
   17.0700    3.2740   24.6520 C   0  0  0  0  0  0  0  0  0  0  0  0
   17.1370    3.4090   23.4770 O   0  0  0  0  0  0  0  0  0  0  0  0
   16.2550    3.8880   25.2740 O   0  0  0  0  0  0  0  0  0  0  0  0
   21.9420    5.1540   29.2670 C   0  0  2  0  0  0  0  0  0  0  0  0
   21.8690    4.5590   30.6460 C   0  0  0  0  0  0  0  0  0  0  0  0
   20.6540    4.3260   31.1730 O   0  0  0  0  0  0  0  0  0  0  0  0
   22.9970    4.3500   31.2630 N   0  0  0  0  0  0  0  0  0  0  0  0
   22.9540    3.7370   32.5860 C   0  0  0  0  0  0  0  0  0  0  0  0
   23.4010    2.3040   32.7650 C   0  0  0  0  0  0  0  0  0  0  0  0
   23.6020    1.9380   33.8940 O   0  0  0  0  0  0  0  0  0  0  0  0
   23.6000    1.5890   31.8080 O   0  0  0  0  0  0  0  0  0  0  0  0
   22.1510    6.6490   29.3510 C   0  0  0  0  0  0  0  0  0  0  0  0
   23.8130    7.2020   28.8720 S   0  0  0  0  0  0  0  0  0  0  0  0
  1  2  2  0  0  0  0
  1  4  1  0  0  0  0
  1  3  1  0  0  0  0
  3 11  1  0  0  0  0
  4  5  1  0  0  0  0
  5  7  1  0  0  0  0
  7  6  1  6  0  0  0
  7  8  1  0  0  0  0
  8 10  2  0  0  0  0
  8  9  1  0  0  0  0
 11 19  1  1  0  0  0
 11 12  1  0  0  0  0
 12 14  1  0  0  0  0
 12 13  2  0  0  0  0
 14 15  1  0  0  0  0
 15 16  1  0  0  0  0
 16 18  2  0  0  0  0
 16 17  1  0  0  0  0
 19 20  1  0  0  0  0
M  END
>  <MODEL>
       8

>  <COMPND>
    UNNAMED

>  <AUTHOR>
    GENERATED BY OPEN BABEL 2.4.90

>  <MASTER>
        0    0    0    0    0    0    0    0   20    0   20    0

