__1aqv_A_rec_20gs_cbd_lig_min.pdb
 OpenBabel10191906483D

 22 24  0  0  0  0  0  0  0  0999 V2000
   23.9470    5.2100   25.9290 C   0  0  0  0  0  0  0  0  0  0  0  0
   23.1410    6.1880   26.5260 C   0  0  0  0  0  0  0  0  0  0  0  0
   21.6890    6.3200   26.0360 N   0  0  0  0  0  0  0  0  0  0  0  0
   23.6930    6.9900   27.5500 C   0  0  0  0  0  0  0  0  0  0  0  0
   22.9040    8.0250   28.2330 C   0  0  0  0  0  0  0  0  0  0  0  0
   21.7050    8.1590   27.8460 O   0  0  0  0  0  0  0  0  0  0  0  0
   23.3980    8.8990   29.3160 C   0  0  0  0  0  0  0  0  0  0  0  0
   22.5890    9.9020   29.9520 C   0  0  0  0  0  0  0  0  0  0  0  0
   23.1480   10.6890   30.9850 C   0  0  0  0  0  0  0  0  0  0  0  0
   24.4840   10.5130   31.3950 C   0  0  0  0  0  0  0  0  0  0  0  0
   25.3050    9.5290   30.7800 C   0  0  0  0  0  0  0  0  0  0  0  0
   24.7680    8.7180   29.7390 C   0  0  0  0  0  0  0  0  0  0  0  0
   25.5520    7.6840   29.0570 C   0  0  0  0  0  0  0  0  0  0  0  0
   26.7370    7.5240   29.4320 O   0  0  0  0  0  0  0  0  0  0  0  0
   25.0820    6.7890   27.9560 C   0  0  0  0  0  0  0  0  0  0  0  0
   25.8820    5.7680   27.2970 C   0  0  0  0  0  0  0  0  0  0  0  0
   25.3080    4.9680   26.2720 C   0  0  0  0  0  0  0  0  0  0  0  0
   27.2890    5.5110   27.6510 N   0  0  0  0  0  0  0  0  0  0  0  0
   23.2180    4.2070   24.6990 S   0  0  0  0  0  0  0  0  0  0  0  0
   22.5080    5.0640   23.6550 O   0  0  0  0  0  0  0  0  0  0  0  0
   22.2570    3.4200   25.5510 O   0  0  0  0  0  0  0  0  0  0  0  0
   24.4390    3.5600   24.0160 O   0  0  0  0  0  0  0  0  0  0  0  0
  1 19  1  0  0  0  0
  1  2  2  0  0  0  0
  1 17  1  0  0  0  0
  2  3  1  0  0  0  0
  2  4  1  0  0  0  0
  4 15  2  0  0  0  0
  4  5  1  0  0  0  0
  5  6  2  0  0  0  0
  5  7  1  0  0  0  0
  7  8  2  0  0  0  0
  7 12  1  0  0  0  0
  8  9  1  0  0  0  0
  9 10  2  0  0  0  0
 10 11  1  0  0  0  0
 11 12  2  0  0  0  0
 12 13  1  0  0  0  0
 13 15  1  0  0  0  0
 13 14  2  0  0  0  0
 15 16  1  0  0  0  0
 16 17  2  0  0  0  0
 16 18  1  0  0  0  0
 19 20  1  0  0  0  0
 19 22  1  0  0  0  0
 19 21  1  0  0  0  0
M  END
>  <COMPND>
    UNNAMED

>  <AUTHOR>
    GENERATED BY OPEN BABEL 2.4.90

>  <MASTER>
        0    0    0    0    0    0    0    0   22    0   22    0

