__1aqv_A_rec_3ie3_gsh_lig_min.pdb
 OpenBabel10191907413D

 20 19  0  0  1  0  0  0  0  0999 V2000
   20.5130    3.9560   27.3830 C   0  0  0  0  0  0  0  0  0  0  0  0
   21.6940    3.4880   26.8990 O   0  0  0  0  0  0  0  0  0  0  0  0
   20.4280    4.6160   28.4990 N   0  0  0  0  0  0  0  0  0  0  0  0
   19.2040    3.7070   26.6640 C   0  0  0  0  0  0  0  0  0  0  0  0
   19.3710    2.9730   25.3410 C   0  0  0  0  0  0  0  0  0  0  0  0
   18.3910    1.2350   23.8600 N   0  0  0  0  0  0  0  0  0  0  0  0
   18.1350    2.2640   24.8110 C   0  0  2  0  0  0  0  0  0  0  0  0
   17.0550    3.2170   24.3600 C   0  0  0  0  0  0  0  0  0  0  0  0
   16.2420    3.6390   25.1120 O   0  0  0  0  0  0  0  0  0  0  0  0
   17.0070    3.5180   23.2050 O   0  0  0  0  0  0  0  0  0  0  0  0
   21.5550    5.1250   29.2060 C   0  0  2  0  0  0  0  0  0  0  0  0
   21.5740    4.5730   30.6040 C   0  0  0  0  0  0  0  0  0  0  0  0
   20.4090    4.4980   31.2720 O   0  0  0  0  0  0  0  0  0  0  0  0
   22.7340    4.2430   31.0970 N   0  0  0  0  0  0  0  0  0  0  0  0
   22.7740    3.6670   32.4370 C   0  0  0  0  0  0  0  0  0  0  0  0
   23.3620    2.2900   32.6460 C   0  0  0  0  0  0  0  0  0  0  0  0
   23.5480    1.9510   33.7850 O   0  0  0  0  0  0  0  0  0  0  0  0
   23.6800    1.5990   31.7040 O   0  0  0  0  0  0  0  0  0  0  0  0
   21.5530    6.6360   29.2390 C   0  0  0  0  0  0  0  0  0  0  0  0
   22.0960    7.4210   27.6940 S   0  0  0  0  0  0  0  0  0  0  0  0
  1  2  2  0  0  0  0
  1  4  1  0  0  0  0
  1  3  1  0  0  0  0
  3 11  1  0  0  0  0
  4  5  1  0  0  0  0
  5  7  1  0  0  0  0
  7  6  1  6  0  0  0
  7  8  1  0  0  0  0
  8 10  2  0  0  0  0
  8  9  1  0  0  0  0
 11 19  1  1  0  0  0
 11 12  1  0  0  0  0
 12 14  1  0  0  0  0
 12 13  2  0  0  0  0
 14 15  1  0  0  0  0
 15 16  1  0  0  0  0
 16 18  2  0  0  0  0
 16 17  1  0  0  0  0
 19 20  1  0  0  0  0
M  END
>  <COMPND>
    UNNAMED

>  <AUTHOR>
    GENERATED BY OPEN BABEL 2.4.90

>  <MASTER>
        0    0    0    0    0    0    0    0   20    0   20    0

