__1aqv_A_rec_9gss_gtx_lig_docked.pdb
 OpenBabel10191911343D

 26 25  0  0  1  0  0  0  0  0999 V2000
   21.8620    4.6640   29.0300 C   0  0  2  0  0  0  0  0  0  0  0  0
   20.3970    3.9780   27.2450 C   0  0  0  0  0  0  0  0  0  0  0  0
   21.2990    3.3270   26.7230 O   0  0  0  0  0  0  0  0  0  0  0  0
   20.5820    4.6860   28.3460 N   0  0  0  0  0  0  0  0  0  0  0  0
   19.0220    4.0280   26.6270 C   0  0  0  0  0  0  0  0  0  0  0  0
   18.2580    2.7270   26.8260 C   0  0  0  0  0  0  0  0  0  0  0  0
   19.3180    1.3060   25.1260 N   0  0  0  0  0  0  0  0  0  0  0  0
   18.0450    1.9240   25.5440 C   0  0  2  0  0  0  0  0  0  0  0  0
   17.5510    2.8260   24.4180 C   0  0  0  0  0  0  0  0  0  0  0  0
   16.3800    3.2670   24.4670 O   0  0  0  0  0  0  0  0  0  0  0  0
   18.3520    3.0340   23.4740 O   0  0  0  0  0  0  0  0  0  0  0  0
   21.6560    4.4290   30.5190 C   0  0  0  0  0  0  0  0  0  0  0  0
   20.5330    4.4870   31.0150 O   0  0  0  0  0  0  0  0  0  0  0  0
   22.7490    4.1440   31.2140 N   0  0  0  0  0  0  0  0  0  0  0  0
   22.6900    3.8640   32.6360 C   0  0  0  0  0  0  0  0  0  0  0  0
   23.2860    2.4850   32.8890 C   0  0  0  0  0  0  0  0  0  0  0  0
   22.7760    1.5010   32.3190 O   0  0  0  0  0  0  0  0  0  0  0  0
   24.2500    2.3720   33.6850 O   0  0  0  0  0  0  0  0  0  0  0  0
   22.6630    5.9470   28.7610 C   0  0  0  0  0  0  0  0  0  0  0  0
   21.7390    7.4380   28.9490 S   0  0  0  0  0  0  0  0  0  0  0  0
   22.8980    8.4400   29.9060 C   0  0  0  0  0  0  0  0  0  0  0  0
   22.6920    9.9270   29.7660 C   0  0  0  0  0  0  0  0  0  0  0  0
   23.2930   10.6970   30.9320 C   0  0  0  0  0  0  0  0  0  0  0  0
   24.3920    9.8740   31.6000 C   0  0  0  0  0  0  0  0  0  0  0  0
   24.3730    9.9680   33.1240 C   0  0  0  0  0  0  0  0  0  0  0  0
   24.7790    8.6530   33.7590 C   0  0  0  0  0  0  0  0  0  0  0  0
  1  4  1  0  0  0  0
  1 19  1  1  0  0  0
  1 12  1  0  0  0  0
  2  3  2  0  0  0  0
  2  5  1  0  0  0  0
  2  4  1  0  0  0  0
  5  6  1  0  0  0  0
  6  8  1  0  0  0  0
  8  7  1  6  0  0  0
  8  9  1  0  0  0  0
  9 11  2  0  0  0  0
  9 10  1  0  0  0  0
 12 13  2  0  0  0  0
 12 14  1  0  0  0  0
 14 15  1  0  0  0  0
 15 16  1  0  0  0  0
 16 18  2  0  0  0  0
 16 17  1  0  0  0  0
 19 20  1  0  0  0  0
 20 21  1  0  0  0  0
 21 22  1  0  0  0  0
 22 23  1  0  0  0  0
 23 24  1  0  0  0  0
 24 25  1  0  0  0  0
 25 26  1  0  0  0  0
M  END
>  <MODEL>
       2

>  <COMPND>
    UNNAMED

>  <AUTHOR>
    GENERATED BY OPEN BABEL 2.4.90

>  <MASTER>
        0    0    0    0    0    0    0    0   26    0   26    0

