__1gss_A_rec_4pgt_gbx_lig_min.pdb
 OpenBabel10191906463D

 43 47  0  0  1  0  0  0  0  0999 V2000
   20.8280    7.5300   28.4270 S   0  0  0  0  0  0  0  0  0  0  0  0
   24.0740    6.4010   26.5500 C   0  0  1  0  0  0  0  0  0  0  0  0
   24.3730    5.2040   26.6100 O   0  0  0  0  0  0  0  0  0  0  0  0
   22.9520    6.6290   26.0650 C   0  0  0  0  0  0  0  0  0  0  0  0
   22.7630    6.1530   24.9440 O   0  0  0  0  0  0  0  0  0  0  0  0
   22.3700    8.0280   26.2150 C   0  0  2  0  0  0  0  0  0  0  0  0
   22.9530    9.0540   25.4240 O   0  0  0  0  0  0  0  0  0  0  0  0
   22.2410    8.4180   27.6910 C   0  0  2  0  0  0  0  0  0  0  0  0
   25.6530    6.8640   28.4450 C   0  0  0  0  0  0  0  0  0  0  0  0
   24.4320    7.1410   27.8190 C   0  0  0  0  0  0  0  0  0  0  0  0
   23.5750    8.1370   28.3590 C   0  0  0  0  0  0  0  0  0  0  0  0
   23.1590    9.8370   30.0490 C   0  0  0  0  0  0  0  0  0  0  0  0
   23.5490   10.5330   31.1900 C   0  0  0  0  0  0  0  0  0  0  0  0
   25.1810   10.9740   32.9100 C   0  0  0  0  0  0  0  0  0  0  0  0
   26.4180   10.7050   33.5000 C   0  0  0  0  0  0  0  0  0  0  0  0
   27.2580    9.7240   32.9660 C   0  0  0  0  0  0  0  0  0  0  0  0
   27.6860    8.0360   31.2960 C   0  0  0  0  0  0  0  0  0  0  0  0
   27.2790    7.3110   30.1740 C   0  0  0  0  0  0  0  0  0  0  0  0
   26.0430    7.5690   29.5800 C   0  0  0  0  0  0  0  0  0  0  0  0
   25.2090    8.5600   30.1130 C   0  0  0  0  0  0  0  0  0  0  0  0
   23.9840    8.8460   29.5030 C   0  0  0  0  0  0  0  0  0  0  0  0
   24.7880   10.2760   31.7710 C   0  0  0  0  0  0  0  0  0  0  0  0
   25.6030    9.2670   31.2560 C   0  0  0  0  0  0  0  0  0  0  0  0
   26.8480    9.0050   31.8450 C   0  0  0  0  0  0  0  0  0  0  0  0
   21.5590    6.5580   29.7700 C   0  0  0  0  0  0  0  0  0  0  0  0
   21.8120    5.0810   29.4430 C   0  0  1  0  0  0  0  0  0  0  0  0
   21.1420    4.1980   31.5650 O   0  0  0  0  0  0  0  0  0  0  0  0
   22.0480    4.3010   30.7370 C   0  0  0  0  0  0  0  0  0  0  0  0
   23.2440    3.7520   30.9140 N   0  0  0  0  0  0  0  0  0  0  0  0
   23.6200    2.9970   32.1150 C   0  0  0  0  0  0  0  0  0  0  0  0
   24.5750    1.8550   31.8130 C   0  0  0  0  0  0  0  0  0  0  0  0
   25.2360    1.3490   32.7240 O   0  0  0  0  0  0  0  0  0  0  0  0
   24.6590    1.4660   30.6250 O   0  0  0  0  0  0  0  0  0  0  0  0
   20.6280    4.5640   28.7620 N   0  0  0  0  0  0  0  0  0  0  0  0
   20.6520    3.9470   27.5900 C   0  0  0  0  0  0  0  0  0  0  0  0
   21.6730    3.7410   26.9290 O   0  0  0  0  0  0  0  0  0  0  0  0
   19.2930    3.5110   27.0820 C   0  0  0  0  0  0  0  0  0  0  0  0
   19.3710    3.0660   25.6290 C   0  0  0  0  0  0  0  0  0  0  0  0
   18.3770    1.5750   23.9160 N   0  0  0  0  0  0  0  0  0  0  0  0
   18.1730    2.1920   25.2500 C   0  0  2  0  0  0  0  0  0  0  0  0
   16.9000    3.0170   25.3700 C   0  0  0  0  0  0  0  0  0  0  0  0
   16.1080    2.8170   26.3030 O   0  0  0  0  0  0  0  0  0  0  0  0
   16.7020    3.8920   24.4980 O   0  0  0  0  0  0  0  0  0  0  0  0
  1 25  1  0  0  0  0
  2  4  1  0  0  0  0
  2  3  1  1  0  0  0
  2 10  1  0  0  0  0
  4  5  2  0  0  0  0
  4  6  1  0  0  0  0
  6  7  1  6  0  0  0
  6  8  1  0  0  0  0
  8  1  1  1  0  0  0
  8 11  1  0  0  0  0
  9 10  2  0  0  0  0
  9 19  1  0  0  0  0
 10 11  1  0  0  0  0
 11 21  2  0  0  0  0
 12 21  1  0  0  0  0
 12 13  2  0  0  0  0
 13 22  1  0  0  0  0
 14 22  2  0  0  0  0
 14 15  1  0  0  0  0
 15 16  2  0  0  0  0
 16 24  1  0  0  0  0
 17 18  2  0  0  0  0
 17 24  1  0  0  0  0
 18 19  1  0  0  0  0
 19 20  2  0  0  0  0
 20 21  1  0  0  0  0
 20 23  1  0  0  0  0
 22 23  1  0  0  0  0
 23 24  2  0  0  0  0
 26 25  1  1  0  0  0
 26 34  1  0  0  0  0
 26 28  1  0  0  0  0
 27 28  2  0  0  0  0
 28 29  1  0  0  0  0
 29 30  1  0  0  0  0
 30 31  1  0  0  0  0
 31 33  2  0  0  0  0
 31 32  1  0  0  0  0
 34 35  1  0  0  0  0
 35 36  2  0  0  0  0
 35 37  1  0  0  0  0
 37 38  1  0  0  0  0
 38 40  1  0  0  0  0
 40 39  1  6  0  0  0
 40 41  1  0  0  0  0
 41 43  2  0  0  0  0
 41 42  1  0  0  0  0
M  END
>  <COMPND>
    UNNAMED

>  <AUTHOR>
    GENERATED BY OPEN BABEL 2.4.90

>  <MASTER>
        0    0    0    0    0    0    0    0   43    0   43    0

