__1gss_A_rec_3gus_gsh_lig_min.pdb
 OpenBabel10191908003D

 20 19  0  0  1  0  0  0  0  0999 V2000
   20.5260    4.1960   27.1780 C   0  0  0  0  0  0  0  0  0  0  0  0
   21.6560    3.6300   26.7270 O   0  0  0  0  0  0  0  0  0  0  0  0
   20.5050    5.0300   28.2020 N   0  0  0  0  0  0  0  0  0  0  0  0
   19.2170    3.9120   26.5000 C   0  0  0  0  0  0  0  0  0  0  0  0
   19.4090    3.0610   25.2830 C   0  0  0  0  0  0  0  0  0  0  0  0
   18.2940    1.4650   23.8550 N   0  0  0  0  0  0  0  0  0  0  0  0
   18.2020    2.1670   25.0970 C   0  0  2  0  0  0  0  0  0  0  0  0
   16.9100    2.9730   25.1420 C   0  0  0  0  0  0  0  0  0  0  0  0
   16.5980    3.6260   24.1400 O   0  0  0  0  0  0  0  0  0  0  0  0
   16.2220    2.8530   26.1520 O   0  0  0  0  0  0  0  0  0  0  0  0
   21.6970    5.6470   28.8160 C   0  0  2  0  0  0  0  0  0  0  0  0
   21.8330    5.0590   30.1970 C   0  0  0  0  0  0  0  0  0  0  0  0
   20.7660    4.6750   30.8600 O   0  0  0  0  0  0  0  0  0  0  0  0
   22.9780    4.9170   30.7740 N   0  0  0  0  0  0  0  0  0  0  0  0
   23.1110    4.5200   32.1650 C   0  0  0  0  0  0  0  0  0  0  0  0
   23.6060    3.1120   32.3530 C   0  0  0  0  0  0  0  0  0  0  0  0
   23.1620    2.2040   31.6750 O   0  0  0  0  0  0  0  0  0  0  0  0
   24.4570    2.8770   33.2090 O   0  0  0  0  0  0  0  0  0  0  0  0
   21.3000    7.0630   28.8310 C   0  0  0  0  0  0  0  0  0  0  0  0
   22.5700    8.2570   28.3580 S   0  0  0  0  0  0  0  0  0  0  0  0
  1  2  2  0  0  0  0
  1  4  1  0  0  0  0
  1  3  1  0  0  0  0
  3 11  1  0  0  0  0
  4  5  1  0  0  0  0
  5  7  1  0  0  0  0
  7  6  1  6  0  0  0
  7  8  1  0  0  0  0
  8  9  2  0  0  0  0
  8 10  1  0  0  0  0
 11 19  1  1  0  0  0
 11 12  1  0  0  0  0
 12 14  1  0  0  0  0
 12 13  2  0  0  0  0
 14 15  1  0  0  0  0
 15 16  1  0  0  0  0
 16 17  2  0  0  0  0
 16 18  1  0  0  0  0
 19 20  1  0  0  0  0
M  END
>  <COMPND>
    UNNAMED

>  <AUTHOR>
    GENERATED BY OPEN BABEL 2.4.90

>  <MASTER>
        0    0    0    0    0    0    0    0   20    0   20    0

