__1lbk_A_rec_2a2r_gsn_lig_min.pdb
 OpenBabel10191908423D

 22 21  0  0  1  0  0  0  0  0999 V2000
   22.0970    5.1140   29.0810 C   0  0  2  0  0  0  0  0  0  0  0  0
   20.8630    4.0840   27.2130 C   0  0  0  0  0  0  0  0  0  0  0  0
   21.8580    3.5590   26.7140 O   0  0  0  0  0  0  0  0  0  0  0  0
   20.8730    4.8190   28.3220 N   0  0  0  0  0  0  0  0  0  0  0  0
   19.4760    3.9170   26.5850 C   0  0  0  0  0  0  0  0  0  0  0  0
   19.5430    3.2230   25.2220 C   0  0  0  0  0  0  0  0  0  0  0  0
   18.2340    2.5100   24.8740 C   0  0  2  0  0  0  0  0  0  0  0  0
   18.4790    1.5470   23.7930 N   0  0  0  0  0  0  0  0  0  0  0  0
   16.4630    4.0370   25.3150 O   0  0  0  0  0  0  0  0  0  0  0  0
   17.1730    3.5170   24.4250 C   0  0  0  0  0  0  0  0  0  0  0  0
   17.0870    3.7390   23.1980 O   0  0  0  0  0  0  0  0  0  0  0  0
   21.8830    4.7390   30.5510 C   0  0  0  0  0  0  0  0  0  0  0  0
   20.7560    4.7370   31.0420 O   0  0  0  0  0  0  0  0  0  0  0  0
   22.9870    4.4180   31.2210 N   0  0  0  0  0  0  0  0  0  0  0  0
   22.9580    4.0490   32.6450 C   0  0  0  0  0  0  0  0  0  0  0  0
   23.6890    2.7240   32.8800 C   0  0  0  0  0  0  0  0  0  0  0  0
   24.3310    2.6190   33.9480 O   0  0  0  0  0  0  0  0  0  0  0  0
   23.5880    1.8490   31.9960 O   0  0  0  0  0  0  0  0  0  0  0  0
   22.3900    6.6140   28.9810 C   0  0  0  0  0  0  0  0  0  0  0  0
   23.4040    7.0610   27.5240 S   0  0  0  0  0  0  0  0  0  0  0  0
   24.0190    5.5990   27.1470 N   0  0  0  0  0  0  0  0  0  0  0  0
   24.7190    5.4140   25.9240 O   0  0  0  0  0  0  0  0  0  0  0  0
  1  4  1  0  0  0  0
  1 19  1  1  0  0  0
  1 12  1  0  0  0  0
  2  3  2  0  0  0  0
  2  5  1  0  0  0  0
  2  4  1  0  0  0  0
  5  6  1  0  0  0  0
  6  7  1  0  0  0  0
  7  8  1  6  0  0  0
  7 10  1  0  0  0  0
  9 10  2  0  0  0  0
 10 11  1  0  0  0  0
 12 14  1  0  0  0  0
 12 13  2  0  0  0  0
 14 15  1  0  0  0  0
 15 16  1  0  0  0  0
 16 18  2  0  0  0  0
 16 17  1  0  0  0  0
 19 20  1  0  0  0  0
 20 21  1  0  0  0  0
 21 22  1  0  0  0  0
M  END
>  <COMPND>
    UNNAMED

>  <AUTHOR>
    GENERATED BY OPEN BABEL 2.4.90

>  <MASTER>
        0    0    0    0    0    0    0    0   22    0   22    0

