__1lbk_A_rec_13gs_gsh_lig_min.pdb
 OpenBabel10191908503D

 20 19  0  0  1  0  0  0  0  0999 V2000
   20.8080    4.1040   27.2600 C   0  0  0  0  0  0  0  0  0  0  0  0
   21.8190    3.6450   26.7260 O   0  0  0  0  0  0  0  0  0  0  0  0
   20.8280    4.7660   28.4100 N   0  0  0  0  0  0  0  0  0  0  0  0
   19.4470    3.9200   26.6370 C   0  0  0  0  0  0  0  0  0  0  0  0
   19.5330    3.2340   25.2950 C   0  0  0  0  0  0  0  0  0  0  0  0
   18.5610    1.5510   23.7830 N   0  0  0  0  0  0  0  0  0  0  0  0
   18.2520    2.5050   24.8830 C   0  0  2  0  0  0  0  0  0  0  0  0
   17.1770    3.5100   24.4390 C   0  0  0  0  0  0  0  0  0  0  0  0
   17.0640    3.7440   23.2140 O   0  0  0  0  0  0  0  0  0  0  0  0
   16.4600    4.0500   25.3130 O   0  0  0  0  0  0  0  0  0  0  0  0
   22.0600    5.0490   29.1270 C   0  0  2  0  0  0  0  0  0  0  0  0
   21.8560    4.6690   30.5770 C   0  0  0  0  0  0  0  0  0  0  0  0
   20.7410    4.7410   31.0940 O   0  0  0  0  0  0  0  0  0  0  0  0
   22.9410    4.2790   31.2350 N   0  0  0  0  0  0  0  0  0  0  0  0
   22.8570    3.9030   32.6300 C   0  0  0  0  0  0  0  0  0  0  0  0
   23.6160    2.6260   32.9380 C   0  0  0  0  0  0  0  0  0  0  0  0
   23.4760    1.6460   32.1750 O   0  0  0  0  0  0  0  0  0  0  0  0
   24.3480    2.6030   33.9500 O   0  0  0  0  0  0  0  0  0  0  0  0
   22.3960    6.5420   29.0680 C   0  0  0  0  0  0  0  0  0  0  0  0
   23.4460    7.0530   27.6890 S   0  0  0  0  0  0  0  0  0  0  0  0
  1  2  2  0  0  0  0
  1  4  1  0  0  0  0
  1  3  1  0  0  0  0
  3 11  1  0  0  0  0
  4  5  1  0  0  0  0
  5  7  1  0  0  0  0
  7  6  1  6  0  0  0
  7  8  1  0  0  0  0
  8  9  2  0  0  0  0
  8 10  1  0  0  0  0
 11 19  1  1  0  0  0
 11 12  1  0  0  0  0
 12 14  1  0  0  0  0
 12 13  2  0  0  0  0
 14 15  1  0  0  0  0
 15 16  1  0  0  0  0
 16 17  2  0  0  0  0
 16 18  1  0  0  0  0
 19 20  1  0  0  0  0
M  END
>  <COMPND>
    UNNAMED

>  <AUTHOR>
    GENERATED BY OPEN BABEL 2.4.90

>  <MASTER>
        0    0    0    0    0    0    0    0   20    0   20    0

