__1px6_A_rec_5djl_gsh_lig_docked.pdb
 OpenBabel10191909413D

 20 19  0  0  1  0  0  0  0  0999 V2000
   20.9800    4.1120   26.8960 C   0  0  0  0  0  0  0  0  0  0  0  0
   22.0990    4.3250   26.4340 O   0  0  0  0  0  0  0  0  0  0  0  0
   20.5920    4.6120   28.2080 N   0  0  0  0  0  0  0  0  0  0  0  0
   19.9330    3.3240   26.1000 C   0  0  0  0  0  0  0  0  0  0  0  0
   18.6900    2.9710   26.9110 C   0  0  0  0  0  0  0  0  0  0  0  0
   18.2960    1.5760   24.9760 N   0  0  0  0  0  0  0  0  0  0  0  0
   17.6480    2.3160   25.9890 C   0  0  2  0  0  0  0  0  0  0  0  0
   16.7640    3.3850   25.3360 C   0  0  0  0  0  0  0  0  0  0  0  0
   16.6810    3.4240   24.0780 O   0  0  0  0  0  0  0  0  0  0  0  0
   16.1230    4.2150   26.0300 O   0  0  0  0  0  0  0  0  0  0  0  0
   21.4980    5.3740   29.0340 C   0  0  2  0  0  0  0  0  0  0  0  0
   21.5760    4.7800   30.4300 C   0  0  0  0  0  0  0  0  0  0  0  0
   20.5640    4.4140   31.0200 O   0  0  0  0  0  0  0  0  0  0  0  0
   22.8840    4.6730   31.0650 N   0  0  0  0  0  0  0  0  0  0  0  0
   23.0420    4.1350   32.4000 C   0  0  0  0  0  0  0  0  0  0  0  0
   23.2790    2.6470   32.3580 C   0  0  0  0  0  0  0  0  0  0  0  0
   24.0420    2.1480   31.4960 O   0  0  0  0  0  0  0  0  0  0  0  0
   22.7150    1.9080   33.2020 O   0  0  0  0  0  0  0  0  0  0  0  0
   20.9980    6.7880   29.1510 C   0  0  0  0  0  0  0  0  0  0  0  0
   22.1450    7.9430   28.4410 S   0  0  0  0  0  0  0  0  0  0  0  0
  1  2  2  0  0  0  0
  1  4  1  0  0  0  0
  1  3  1  0  0  0  0
  3 11  1  0  0  0  0
  4  5  1  0  0  0  0
  5  7  1  0  0  0  0
  7  6  1  6  0  0  0
  7  8  1  0  0  0  0
  8  9  2  0  0  0  0
  8 10  1  0  0  0  0
 11 19  1  1  0  0  0
 11 12  1  0  0  0  0
 12 14  1  0  0  0  0
 12 13  2  0  0  0  0
 14 15  1  0  0  0  0
 15 16  1  0  0  0  0
 16 17  2  0  0  0  0
 16 18  1  0  0  0  0
 19 20  1  0  0  0  0
M  END
>  <MODEL>
       7

>  <COMPND>
    UNNAMED

>  <AUTHOR>
    GENERATED BY OPEN BABEL 2.4.90

>  <MASTER>
        0    0    0    0    0    0    0    0   20    0   20    0

