__1px6_A_rec_1zgn_gsh_lig_min.pdb
 OpenBabel10191906193D

 20 19  0  0  1  0  0  0  0  0999 V2000
   20.5900    4.0420   27.3880 C   0  0  0  0  0  0  0  0  0  0  0  0
   21.6990    3.6680   26.9630 O   0  0  0  0  0  0  0  0  0  0  0  0
   20.4160    4.9100   28.3970 N   0  0  0  0  0  0  0  0  0  0  0  0
   19.2580    3.5310   26.7830 C   0  0  0  0  0  0  0  0  0  0  0  0
   19.4590    2.9950   25.3280 C   0  0  0  0  0  0  0  0  0  0  0  0
   18.5030    1.4880   23.7310 N   0  0  0  0  0  0  0  0  0  0  0  0
   18.1790    2.2660   24.8150 C   0  0  2  0  0  0  0  0  0  0  0  0
   17.1120    3.2020   24.5570 C   0  0  0  0  0  0  0  0  0  0  0  0
   16.8980    3.5750   23.3960 O   0  0  0  0  0  0  0  0  0  0  0  0
   16.4090    3.6220   25.5900 O   0  0  0  0  0  0  0  0  0  0  0  0
   21.5620    5.5050   29.1050 C   0  0  2  0  0  0  0  0  0  0  0  0
   21.6420    4.8900   30.5140 C   0  0  0  0  0  0  0  0  0  0  0  0
   20.6290    4.4780   31.1080 O   0  0  0  0  0  0  0  0  0  0  0  0
   22.8870    4.8300   31.0710 N   0  0  0  0  0  0  0  0  0  0  0  0
   23.1540    4.2780   32.4220 C   0  0  0  0  0  0  0  0  0  0  0  0
   23.4870    2.7920   32.3410 C   0  0  0  0  0  0  0  0  0  0  0  0
   23.2590    2.1260   33.3650 O   0  0  0  0  0  0  0  0  0  0  0  0
   23.9590    2.3250   31.2740 O   0  0  0  0  0  0  0  0  0  0  0  0
   21.3630    7.0350   29.2430 C   0  0  0  0  0  0  0  0  0  0  0  0
   22.3490    7.9680   28.0280 S   0  0  0  0  0  0  0  0  0  0  0  0
  1  2  2  0  0  0  0
  1  4  1  0  0  0  0
  1  3  1  0  0  0  0
  3 11  1  0  0  0  0
  4  5  1  0  0  0  0
  5  7  1  0  0  0  0
  7  6  1  6  0  0  0
  7  8  1  0  0  0  0
  8  9  2  0  0  0  0
  8 10  1  0  0  0  0
 11 19  1  1  0  0  0
 11 12  1  0  0  0  0
 12 14  1  0  0  0  0
 12 13  2  0  0  0  0
 14 15  1  0  0  0  0
 15 16  1  0  0  0  0
 16 18  2  0  0  0  0
 16 17  1  0  0  0  0
 19 20  1  0  0  0  0
M  END
>  <COMPND>
    UNNAMED

>  <AUTHOR>
    GENERATED BY OPEN BABEL 2.4.90

>  <MASTER>
        0    0    0    0    0    0    0    0   20    0   20    0

