__1zgn_A_rec_1px6_gsh_lig_min.pdb
 OpenBabel10191906503D

 20 19  0  0  1  0  0  0  0  0999 V2000
   20.4920    3.8210   27.0320 C   0  0  0  0  0  0  0  0  0  0  0  0
   21.4840    4.0630   26.3010 O   0  0  0  0  0  0  0  0  0  0  0  0
   20.3890    4.2500   28.2910 N   0  0  0  0  0  0  0  0  0  0  0  0
   19.3000    3.0070   26.5480 C   0  0  0  0  0  0  0  0  0  0  0  0
   19.2760    2.7320   25.0410 C   0  0  0  0  0  0  0  0  0  0  0  0
   18.2040    1.2690   23.3730 N   0  0  0  0  0  0  0  0  0  0  0  0
   17.9520    2.1490   24.5470 C   0  0  2  0  0  0  0  0  0  0  0  0
   16.9690    3.2780   24.1640 C   0  0  0  0  0  0  0  0  0  0  0  0
   16.3980    3.9130   25.0810 O   0  0  0  0  0  0  0  0  0  0  0  0
   16.7780    3.5230   22.9550 O   0  0  0  0  0  0  0  0  0  0  0  0
   21.4210    5.0470   28.9400 C   0  0  2  0  0  0  0  0  0  0  0  0
   21.5940    4.5960   30.3990 C   0  0  0  0  0  0  0  0  0  0  0  0
   20.6020    4.3980   31.1190 O   0  0  0  0  0  0  0  0  0  0  0  0
   22.8610    4.4510   30.8170 N   0  0  0  0  0  0  0  0  0  0  0  0
   23.1930    4.0480   32.1780 C   0  0  0  0  0  0  0  0  0  0  0  0
   23.5590    2.6030   32.3920 C   0  0  0  0  0  0  0  0  0  0  0  0
   23.5610    2.1700   33.5670 O   0  0  0  0  0  0  0  0  0  0  0  0
   23.8390    1.8970   31.3990 O   0  0  0  0  0  0  0  0  0  0  0  0
   21.0200    6.5370   28.8940 C   0  0  0  0  0  0  0  0  0  0  0  0
   21.8570    7.4690   27.5430 S   0  0  0  0  0  0  0  0  0  0  0  0
  1  2  2  0  0  0  0
  1  4  1  0  0  0  0
  1  3  1  0  0  0  0
  3 11  1  0  0  0  0
  4  5  1  0  0  0  0
  5  7  1  0  0  0  0
  7  6  1  6  0  0  0
  7  8  1  0  0  0  0
  8 10  2  0  0  0  0
  8  9  1  0  0  0  0
 11 19  1  1  0  0  0
 11 12  1  0  0  0  0
 12 14  1  0  0  0  0
 12 13  2  0  0  0  0
 14 15  1  0  0  0  0
 15 16  1  0  0  0  0
 16 18  2  0  0  0  0
 16 17  1  0  0  0  0
 19 20  1  0  0  0  0
M  END
>  <COMPND>
    UNNAMED

>  <AUTHOR>
    GENERATED BY OPEN BABEL 2.4.90

>  <MASTER>
        0    0    0    0    0    0    0    0   20    0   20    0

