__1zgn_A_rec_1zgn_gsh_lig_min.pdb
 OpenBabel10191908413D

 20 19  0  0  1  0  0  0  0  0999 V2000
   20.5540    3.6780   27.1380 C   0  0  0  0  0  0  0  0  0  0  0  0
   21.6420    3.2630   26.6970 O   0  0  0  0  0  0  0  0  0  0  0  0
   20.4280    4.5930   28.1120 N   0  0  0  0  0  0  0  0  0  0  0  0
   19.1940    3.1710   26.5960 C   0  0  0  0  0  0  0  0  0  0  0  0
   19.2760    2.8300   25.0720 C   0  0  0  0  0  0  0  0  0  0  0  0
   18.2060    1.2890   23.5840 N   0  0  0  0  0  0  0  0  0  0  0  0
   17.9370    2.2170   24.5590 C   0  0  2  0  0  0  0  0  0  0  0  0
   17.0170    3.2460   24.1420 C   0  0  0  0  0  0  0  0  0  0  0  0
   16.8570    3.4640   22.9330 O   0  0  0  0  0  0  0  0  0  0  0  0
   16.3840    3.9150   25.0840 O   0  0  0  0  0  0  0  0  0  0  0  0
   21.6080    5.1930   28.7590 C   0  0  2  0  0  0  0  0  0  0  0  0
   21.6560    4.7250   30.2250 C   0  0  0  0  0  0  0  0  0  0  0  0
   20.6210    4.4710   30.8670 O   0  0  0  0  0  0  0  0  0  0  0  0
   22.9010    4.6110   30.7770 N   0  0  0  0  0  0  0  0  0  0  0  0
   23.1390    4.1820   32.1770 C   0  0  0  0  0  0  0  0  0  0  0  0
   23.4680    2.6940   32.2350 C   0  0  0  0  0  0  0  0  0  0  0  0
   23.2000    2.1190   33.3040 O   0  0  0  0  0  0  0  0  0  0  0  0
   23.9770    2.1370   31.2300 O   0  0  0  0  0  0  0  0  0  0  0  0
   21.4960    6.7380   28.7360 C   0  0  0  0  0  0  0  0  0  0  0  0
   21.6520    7.4130   27.0520 S   0  0  0  0  0  0  0  0  0  0  0  0
  1  2  2  0  0  0  0
  1  4  1  0  0  0  0
  1  3  1  0  0  0  0
  3 11  1  0  0  0  0
  4  5  1  0  0  0  0
  5  7  1  0  0  0  0
  7  6  1  6  0  0  0
  7  8  1  0  0  0  0
  8  9  2  0  0  0  0
  8 10  1  0  0  0  0
 11 19  1  1  0  0  0
 11 12  1  0  0  0  0
 12 14  1  0  0  0  0
 12 13  2  0  0  0  0
 14 15  1  0  0  0  0
 15 16  1  0  0  0  0
 16 18  2  0  0  0  0
 16 17  1  0  0  0  0
 19 20  1  0  0  0  0
M  END
>  <COMPND>
    UNNAMED

>  <AUTHOR>
    GENERATED BY OPEN BABEL 2.4.90

>  <MASTER>
        0    0    0    0    0    0    0    0   20    0   20    0

