__1zgn_A_rec_3kmo_gsh_lig_docked.pdb
 OpenBabel10191912203D

 20 19  0  0  1  0  0  0  0  0999 V2000
   21.2240    3.7740   27.0430 C   0  0  0  0  0  0  0  0  0  0  0  0
   22.6010    3.3930   26.9110 O   0  0  0  0  0  0  0  0  0  0  0  0
   20.7200    4.5080   28.0530 N   0  0  0  0  0  0  0  0  0  0  0  0
   20.1810    3.4290   25.9870 C   0  0  0  0  0  0  0  0  0  0  0  0
   18.8800    2.8890   26.5710 C   0  0  0  0  0  0  0  0  0  0  0  0
   17.6240    0.9060   25.9000 N   0  0  0  0  0  0  0  0  0  0  0  0
   18.0030    2.2510   25.5050 C   0  0  1  0  0  0  0  0  0  0  0  0
   16.8400    3.1440   25.1080 C   0  0  0  0  0  0  0  0  0  0  0  0
   16.3080    3.8380   26.0040 O   0  0  0  0  0  0  0  0  0  0  0  0
   16.3400    3.2140   23.9370 O   0  0  0  0  0  0  0  0  0  0  0  0
   21.5400    5.3700   28.8700 C   0  0  2  0  0  0  0  0  0  0  0  0
   21.7910    4.6510   30.1870 C   0  0  0  0  0  0  0  0  0  0  0  0
   20.6830    4.3580   31.0020 O   0  0  0  0  0  0  0  0  0  0  0  0
   23.0650    4.3360   30.5070 N   0  0  0  0  0  0  0  0  0  0  0  0
   23.5210    4.0180   31.8340 C   0  0  0  0  0  0  0  0  0  0  0  0
   23.3220    2.5460   32.1460 C   0  0  0  0  0  0  0  0  0  0  0  0
   24.0620    1.6320   31.6570 O   0  0  0  0  0  0  0  0  0  0  0  0
   22.3730    2.2210   32.8960 O   0  0  0  0  0  0  0  0  0  0  0  0
   20.8970    6.7550   29.0930 C   0  0  0  0  0  0  0  0  0  0  0  0
   22.0670    8.1480   28.9710 S   0  0  0  0  0  0  0  0  0  0  0  0
  1  2  2  0  0  0  0
  1  4  1  0  0  0  0
  1  3  1  0  0  0  0
  3 11  1  0  0  0  0
  4  5  1  0  0  0  0
  5  7  1  0  0  0  0
  7  6  1  1  0  0  0
  7  8  1  0  0  0  0
  8  9  2  0  0  0  0
  8 10  1  0  0  0  0
 11 19  1  1  0  0  0
 11 12  1  0  0  0  0
 12 14  1  0  0  0  0
 12 13  2  0  0  0  0
 14 15  1  0  0  0  0
 15 16  1  0  0  0  0
 16 17  2  0  0  0  0
 16 18  1  0  0  0  0
 19 20  1  0  0  0  0
M  END
>  <MODEL>
       2

>  <COMPND>
    UNNAMED

>  <AUTHOR>
    GENERATED BY OPEN BABEL 2.4.90

>  <MASTER>
        0    0    0    0    0    0    0    0   20    0   20    0

