__1zgn_A_rec_5djl_gsh_lig_min.pdb
 OpenBabel10191907173D

 20 19  0  0  1  0  0  0  0  0999 V2000
   20.5220    3.7040   27.1410 C   0  0  0  0  0  0  0  0  0  0  0  0
   21.6090    3.2840   26.7490 O   0  0  0  0  0  0  0  0  0  0  0  0
   20.4290    4.7110   28.1890 N   0  0  0  0  0  0  0  0  0  0  0  0
   19.2120    3.1960   26.5280 C   0  0  0  0  0  0  0  0  0  0  0  0
   19.3430    2.7820   25.0660 C   0  0  0  0  0  0  0  0  0  0  0  0
   18.2650    1.2910   23.4960 N   0  0  0  0  0  0  0  0  0  0  0  0
   18.0250    2.1470   24.5940 C   0  0  2  0  0  0  0  0  0  0  0  0
   17.0290    3.2330   24.1700 C   0  0  0  0  0  0  0  0  0  0  0  0
   16.8550    3.4540   22.9410 O   0  0  0  0  0  0  0  0  0  0  0  0
   16.3870    3.8990   25.0220 O   0  0  0  0  0  0  0  0  0  0  0  0
   21.6010    5.2630   28.8250 C   0  0  2  0  0  0  0  0  0  0  0  0
   21.7210    4.7600   30.2530 C   0  0  0  0  0  0  0  0  0  0  0  0
   20.7250    4.4490   30.9000 O   0  0  0  0  0  0  0  0  0  0  0  0
   23.0480    4.6770   30.8500 N   0  0  0  0  0  0  0  0  0  0  0  0
   23.2460    4.2250   32.2110 C   0  0  0  0  0  0  0  0  0  0  0  0
   23.4870    2.7390   32.2580 C   0  0  0  0  0  0  0  0  0  0  0  0
   23.9530    2.1370   31.2600 O   0  0  0  0  0  0  0  0  0  0  0  0
   23.2290    2.1040   33.3100 O   0  0  0  0  0  0  0  0  0  0  0  0
   21.4910    6.7630   28.8600 C   0  0  0  0  0  0  0  0  0  0  0  0
   21.7440    7.4700   27.2500 S   0  0  0  0  0  0  0  0  0  0  0  0
  1  2  2  0  0  0  0
  1  4  1  0  0  0  0
  1  3  1  0  0  0  0
  3 11  1  0  0  0  0
  4  5  1  0  0  0  0
  5  7  1  0  0  0  0
  7  6  1  6  0  0  0
  7  8  1  0  0  0  0
  8  9  2  0  0  0  0
  8 10  1  0  0  0  0
 11 19  1  1  0  0  0
 11 12  1  0  0  0  0
 12 14  1  0  0  0  0
 12 13  2  0  0  0  0
 14 15  1  0  0  0  0
 15 16  1  0  0  0  0
 16 17  2  0  0  0  0
 16 18  1  0  0  0  0
 19 20  1  0  0  0  0
M  END
>  <COMPND>
    UNNAMED

>  <AUTHOR>
    GENERATED BY OPEN BABEL 2.4.90

>  <MASTER>
        0    0    0    0    0    0    0    0   20    0   20    0

