__1zgn_A_rec_10gs_vww_lig_min.pdb
 OpenBabel10191907333D

 33 34  0  0  1  0  0  0  0  0999 V2000
   21.4830    5.0440   29.0530 C   0  0  2  0  0  0  0  0  0  0  0  0
   20.4510    3.9090   27.1480 C   0  0  0  0  0  0  0  0  0  0  0  0
   21.3260    4.2740   26.3630 O   0  0  0  0  0  0  0  0  0  0  0  0
   20.4620    4.2020   28.4440 N   0  0  0  0  0  0  0  0  0  0  0  0
   19.3050    3.0410   26.6910 C   0  0  0  0  0  0  0  0  0  0  0  0
   19.2900    2.7970   25.1940 C   0  0  0  0  0  0  0  0  0  0  0  0
   18.2110    1.3910   23.4650 N   0  0  0  0  0  0  0  0  0  0  0  0
   17.9800    2.1730   24.7090 C   0  0  2  0  0  0  0  0  0  0  0  0
   16.9210    3.2610   24.4910 C   0  0  0  0  0  0  0  0  0  0  0  0
   16.4030    3.8090   25.4880 O   0  0  0  0  0  0  0  0  0  0  0  0
   16.6080    3.5420   23.3170 O   0  0  0  0  0  0  0  0  0  0  0  0
   21.7890    4.5840   30.4660 C   0  0  0  0  0  0  0  0  0  0  0  0
   20.8860    4.3150   31.2570 O   0  0  0  0  0  0  0  0  0  0  0  0
   23.0760    4.5420   30.7790 N   0  0  0  0  0  0  0  0  0  0  0  0
   23.5500    4.1700   32.1000 C   0  0  2  0  0  0  0  0  0  0  0  0
   24.7500    4.9610   32.5080 C   0  0  0  0  0  0  0  0  0  0  0  0
   25.8730    5.0320   31.6930 C   0  0  0  0  0  0  0  0  0  0  0  0
   26.9580    5.8280   32.0420 C   0  0  0  0  0  0  0  0  0  0  0  0
   26.9240    6.5640   33.2190 C   0  0  0  0  0  0  0  0  0  0  0  0
   25.8090    6.4960   34.0420 C   0  0  0  0  0  0  0  0  0  0  0  0
   24.7300    5.6970   33.6850 C   0  0  0  0  0  0  0  0  0  0  0  0
   23.6610    2.6630   32.3220 C   0  0  0  0  0  0  0  0  0  0  0  0
   23.4700    2.2420   33.4790 O   0  0  0  0  0  0  0  0  0  0  0  0
   23.9280    1.9220   31.3520 O   0  0  0  0  0  0  0  0  0  0  0  0
   20.9880    6.4880   29.1430 C   0  0  0  0  0  0  0  0  0  0  0  0
   21.8520    7.6690   28.1200 S   0  0  0  0  0  0  0  0  0  0  0  0
   23.4760    7.6490   28.9070 C   0  0  0  0  0  0  0  0  0  0  0  0
   23.6350    8.6770   29.9960 C   0  0  0  0  0  0  0  0  0  0  0  0
   24.2590    8.3420   31.1950 C   0  0  0  0  0  0  0  0  0  0  0  0
   23.1630    9.9760   29.8260 C   0  0  0  0  0  0  0  0  0  0  0  0
   24.4110    9.2820   32.2090 C   0  0  0  0  0  0  0  0  0  0  0  0
   23.3100   10.9270   30.8370 C   0  0  0  0  0  0  0  0  0  0  0  0
   23.9350   10.5790   32.0290 C   0  0  0  0  0  0  0  0  0  0  0  0
  1  4  1  0  0  0  0
  1 25  1  1  0  0  0
  1 12  1  0  0  0  0
  2  3  2  0  0  0  0
  2  5  1  0  0  0  0
  2  4  1  0  0  0  0
  5  6  1  0  0  0  0
  6  8  1  0  0  0  0
  8  7  1  6  0  0  0
  8  9  1  0  0  0  0
  9 11  2  0  0  0  0
  9 10  1  0  0  0  0
 12 14  1  0  0  0  0
 12 13  2  0  0  0  0
 15 14  1  6  0  0  0
 15 22  1  0  0  0  0
 15 16  1  0  0  0  0
 16 17  2  0  0  0  0
 16 21  1  0  0  0  0
 17 18  1  0  0  0  0
 18 19  2  0  0  0  0
 19 20  1  0  0  0  0
 20 21  2  0  0  0  0
 22 24  2  0  0  0  0
 22 23  1  0  0  0  0
 25 26  1  0  0  0  0
 26 27  1  0  0  0  0
 27 28  1  0  0  0  0
 28 30  2  0  0  0  0
 28 29  1  0  0  0  0
 29 31  2  0  0  0  0
 30 32  1  0  0  0  0
 31 33  1  0  0  0  0
 32 33  2  0  0  0  0
M  END
>  <COMPND>
    UNNAMED

>  <AUTHOR>
    GENERATED BY OPEN BABEL 2.4.90

>  <MASTER>
        0    0    0    0    0    0    0    0   33    0   33    0

