__20gs_A_rec_13gs_gsh_lig_min.pdb
 OpenBabel10191908123D

 20 19  0  0  1  0  0  0  0  0999 V2000
   20.7130    3.9890   27.4700 C   0  0  0  0  0  0  0  0  0  0  0  0
   21.7230    3.3340   27.2080 O   0  0  0  0  0  0  0  0  0  0  0  0
   20.6850    4.9490   28.3860 N   0  0  0  0  0  0  0  0  0  0  0  0
   19.4070    3.7210   26.7660 C   0  0  0  0  0  0  0  0  0  0  0  0
   19.6150    3.0150   25.4480 C   0  0  0  0  0  0  0  0  0  0  0  0
   18.8890    1.0890   24.0970 N   0  0  0  0  0  0  0  0  0  0  0  0
   18.4150    2.1820   24.9900 C   0  0  2  0  0  0  0  0  0  0  0  0
   17.3890    3.0660   24.2630 C   0  0  0  0  0  0  0  0  0  0  0  0
   17.3530    3.0150   23.0120 O   0  0  0  0  0  0  0  0  0  0  0  0
   16.6320    3.7950   24.9460 O   0  0  0  0  0  0  0  0  0  0  0  0
   21.8650    5.3460   29.1370 C   0  0  2  0  0  0  0  0  0  0  0  0
   21.7600    4.7480   30.5230 C   0  0  0  0  0  0  0  0  0  0  0  0
   20.6610    4.5320   31.0330 O   0  0  0  0  0  0  0  0  0  0  0  0
   22.9100    4.4950   31.1350 N   0  0  0  0  0  0  0  0  0  0  0  0
   22.9230    3.9310   32.4690 C   0  0  0  0  0  0  0  0  0  0  0  0
   23.5130    2.5340   32.5070 C   0  0  0  0  0  0  0  0  0  0  0  0
   23.8960    2.0150   31.4360 O   0  0  0  0  0  0  0  0  0  0  0  0
   23.5870    1.9540   33.6110 O   0  0  0  0  0  0  0  0  0  0  0  0
   21.9340    6.8690   29.2790 C   0  0  0  0  0  0  0  0  0  0  0  0
   22.6110    7.7570   27.8580 S   0  0  0  0  0  0  0  0  0  0  0  0
  1  2  2  0  0  0  0
  1  4  1  0  0  0  0
  1  3  1  0  0  0  0
  3 11  1  0  0  0  0
  4  5  1  0  0  0  0
  5  7  1  0  0  0  0
  7  6  1  6  0  0  0
  7  8  1  0  0  0  0
  8  9  2  0  0  0  0
  8 10  1  0  0  0  0
 11 19  1  1  0  0  0
 11 12  1  0  0  0  0
 12 14  1  0  0  0  0
 12 13  2  0  0  0  0
 14 15  1  0  0  0  0
 15 16  1  0  0  0  0
 16 17  2  0  0  0  0
 16 18  1  0  0  0  0
 19 20  1  0  0  0  0
M  END
>  <COMPND>
    UNNAMED

>  <AUTHOR>
    GENERATED BY OPEN BABEL 2.4.90

>  <MASTER>
        0    0    0    0    0    0    0    0   20    0   20    0

