__2a2r_A_rec_2a2r_gsn_lig_min.pdb
 OpenBabel10191908123D

 22 21  0  0  1  0  0  0  0  0999 V2000
   21.7720    5.1460   28.9330 C   0  0  2  0  0  0  0  0  0  0  0  0
   20.6560    3.7910   27.2030 C   0  0  0  0  0  0  0  0  0  0  0  0
   21.7040    3.4030   26.6890 O   0  0  0  0  0  0  0  0  0  0  0  0
   20.5870    4.5970   28.2590 N   0  0  0  0  0  0  0  0  0  0  0  0
   19.2940    3.3500   26.6600 C   0  0  0  0  0  0  0  0  0  0  0  0
   19.3730    2.9160   25.1940 C   0  0  0  0  0  0  0  0  0  0  0  0
   18.0850    2.2340   24.7260 C   0  0  2  0  0  0  0  0  0  0  0  0
   18.3940    1.3270   23.6120 N   0  0  0  0  0  0  0  0  0  0  0  0
   16.4290    3.8880   25.1530 O   0  0  0  0  0  0  0  0  0  0  0  0
   17.0610    3.2730   24.2650 C   0  0  0  0  0  0  0  0  0  0  0  0
   16.9230    3.4230   23.0320 O   0  0  0  0  0  0  0  0  0  0  0  0
   21.7990    4.6620   30.3860 C   0  0  0  0  0  0  0  0  0  0  0  0
   20.7540    4.4740   31.0040 O   0  0  0  0  0  0  0  0  0  0  0  0
   23.0110    4.4600   30.8950 N   0  0  0  0  0  0  0  0  0  0  0  0
   23.2130    4.0090   32.2800 C   0  0  0  0  0  0  0  0  0  0  0  0
   23.5730    2.5220   32.3240 C   0  0  0  0  0  0  0  0  0  0  0  0
   23.3880    1.9310   33.4100 O   0  0  0  0  0  0  0  0  0  0  0  0
   24.0170    2.0090   31.2760 O   0  0  0  0  0  0  0  0  0  0  0  0
   21.6870    6.6750   28.9120 C   0  0  0  0  0  0  0  0  0  0  0  0
   21.4340    7.3680   27.2370 S   0  0  0  0  0  0  0  0  0  0  0  0
   22.5030    6.4700   26.3940 N   0  0  0  0  0  0  0  0  0  0  0  0
   22.1790    6.0170   25.0870 O   0  0  0  0  0  0  0  0  0  0  0  0
  1  4  1  0  0  0  0
  1 19  1  1  0  0  0
  1 12  1  0  0  0  0
  2  3  2  0  0  0  0
  2  5  1  0  0  0  0
  2  4  1  0  0  0  0
  5  6  1  0  0  0  0
  6  7  1  0  0  0  0
  7  8  1  6  0  0  0
  7 10  1  0  0  0  0
  9 10  2  0  0  0  0
 10 11  1  0  0  0  0
 12 14  1  0  0  0  0
 12 13  2  0  0  0  0
 14 15  1  0  0  0  0
 15 16  1  0  0  0  0
 16 18  2  0  0  0  0
 16 17  1  0  0  0  0
 19 20  1  0  0  0  0
 20 21  1  0  0  0  0
 21 22  1  0  0  0  0
M  END
>  <COMPND>
    UNNAMED

>  <AUTHOR>
    GENERATED BY OPEN BABEL 2.4.90

>  <MASTER>
        0    0    0    0    0    0    0    0   22    0   22    0

