__2a2r_A_rec_20gs_cbd_lig_docked.pdb
 OpenBabel10191911503D

 22 24  0  0  0  0  0  0  0  0999 V2000
   24.2050    4.4200   25.6380 C   0  0  0  0  0  0  0  0  0  0  0  0
   23.3260    5.4210   26.0700 C   0  0  0  0  0  0  0  0  0  0  0  0
   21.9360    5.4880   25.4150 N   0  0  0  0  0  0  0  0  0  0  0  0
   23.7500    6.3050   27.0870 C   0  0  0  0  0  0  0  0  0  0  0  0
   22.8770    7.3700   27.6020 C   0  0  0  0  0  0  0  0  0  0  0  0
   21.7270    7.4510   27.0760 O   0  0  0  0  0  0  0  0  0  0  0  0
   23.2360    8.3290   28.6650 C   0  0  0  0  0  0  0  0  0  0  0  0
   22.3480    9.3580   29.1330 C   0  0  0  0  0  0  0  0  0  0  0  0
   22.7790   10.2280   30.1610 C   0  0  0  0  0  0  0  0  0  0  0  0
   24.0620   10.1090   30.7290 C   0  0  0  0  0  0  0  0  0  0  0  0
   24.9590    9.1010   30.2810 C   0  0  0  0  0  0  0  0  0  0  0  0
   24.5530    8.2070   29.2490 C   0  0  0  0  0  0  0  0  0  0  0  0
   25.4200    7.1430   28.7350 C   0  0  0  0  0  0  0  0  0  0  0  0
   26.5580    7.0350   29.2490 O   0  0  0  0  0  0  0  0  0  0  0  0
   25.0870    6.1620   27.6580 C   0  0  0  0  0  0  0  0  0  0  0  0
   25.9690    5.1140   27.1680 C   0  0  0  0  0  0  0  0  0  0  0  0
   25.5230    4.2310   26.1460 C   0  0  0  0  0  0  0  0  0  0  0  0
   27.3310    4.9120   27.6920 N   0  0  0  0  0  0  0  0  0  0  0  0
   23.6310    3.3170   24.4120 S   0  0  0  0  0  0  0  0  0  0  0  0
   24.7130    2.3040   24.0510 O   0  0  0  0  0  0  0  0  0  0  0  0
   23.3610    4.2960   23.2990 O   0  0  0  0  0  0  0  0  0  0  0  0
   22.5040    2.5560   25.1350 O   0  0  0  0  0  0  0  0  0  0  0  0
  1 19  1  0  0  0  0
  1  2  2  0  0  0  0
  1 17  1  0  0  0  0
  2  3  1  0  0  0  0
  2  4  1  0  0  0  0
  4 15  2  0  0  0  0
  4  5  1  0  0  0  0
  5  6  2  0  0  0  0
  5  7  1  0  0  0  0
  7  8  2  0  0  0  0
  7 12  1  0  0  0  0
  8  9  1  0  0  0  0
  9 10  2  0  0  0  0
 10 11  1  0  0  0  0
 11 12  2  0  0  0  0
 12 13  1  0  0  0  0
 13 15  1  0  0  0  0
 13 14  2  0  0  0  0
 15 16  1  0  0  0  0
 16 17  2  0  0  0  0
 16 18  1  0  0  0  0
 19 20  1  0  0  0  0
 19 22  1  0  0  0  0
 19 21  1  0  0  0  0
M  END
>  <MODEL>
      15

>  <COMPND>
    UNNAMED

>  <AUTHOR>
    GENERATED BY OPEN BABEL 2.4.90

>  <MASTER>
        0    0    0    0    0    0    0    0   22    0   22    0

