__2j9h_B_rec_10gs_vww_lig_min.pdb
 OpenBabel10191907563D

 33 34  0  0  1  0  0  0  0  0999 V2000
   21.6960    5.1500   29.1070 C   0  0  2  0  0  0  0  0  0  0  0  0
   20.5700    4.2820   27.1160 C   0  0  0  0  0  0  0  0  0  0  0  0
   21.4560    4.6680   26.3560 O   0  0  0  0  0  0  0  0  0  0  0  0
   20.6140    4.4410   28.4350 N   0  0  0  0  0  0  0  0  0  0  0  0
   19.3640    3.5390   26.5960 C   0  0  0  0  0  0  0  0  0  0  0  0
   19.5530    2.9800   25.1990 C   0  0  0  0  0  0  0  0  0  0  0  0
   18.7310    1.2580   23.6230 N   0  0  0  0  0  0  0  0  0  0  0  0
   18.3340    2.2000   24.7030 C   0  0  2  0  0  0  0  0  0  0  0  0
   17.2430    3.1660   24.2230 C   0  0  0  0  0  0  0  0  0  0  0  0
   16.5240    3.7350   25.0730 O   0  0  0  0  0  0  0  0  0  0  0  0
   17.1100    3.3300   22.9940 O   0  0  0  0  0  0  0  0  0  0  0  0
   21.9160    4.6000   30.5030 C   0  0  0  0  0  0  0  0  0  0  0  0
   20.9710    4.4050   31.2670 O   0  0  0  0  0  0  0  0  0  0  0  0
   23.1830    4.3960   30.8360 N   0  0  0  0  0  0  0  0  0  0  0  0
   23.5820    3.9190   32.1470 C   0  0  2  0  0  0  0  0  0  0  0  0
   24.7920    4.6310   32.6590 C   0  0  0  0  0  0  0  0  0  0  0  0
   25.9640    4.6810   31.9130 C   0  0  0  0  0  0  0  0  0  0  0  0
   27.0620    5.4080   32.3600 C   0  0  0  0  0  0  0  0  0  0  0  0
   26.9930    6.0930   33.5660 C   0  0  0  0  0  0  0  0  0  0  0  0
   25.8280    6.0440   34.3200 C   0  0  0  0  0  0  0  0  0  0  0  0
   24.7370    5.3160   33.8650 C   0  0  0  0  0  0  0  0  0  0  0  0
   23.6270    2.3970   32.2690 C   0  0  0  0  0  0  0  0  0  0  0  0
   23.3480    1.9060   33.3800 O   0  0  0  0  0  0  0  0  0  0  0  0
   23.9280    1.7130   31.2680 O   0  0  0  0  0  0  0  0  0  0  0  0
   21.3420    6.6300   29.2530 C   0  0  0  0  0  0  0  0  0  0  0  0
   22.1750    7.7410   28.1300 S   0  0  0  0  0  0  0  0  0  0  0  0
   23.8330    7.7350   28.8430 C   0  0  0  0  0  0  0  0  0  0  0  0
   23.9610    8.5700   30.0900 C   0  0  0  0  0  0  0  0  0  0  0  0
   24.2940    7.9760   31.3040 C   0  0  0  0  0  0  0  0  0  0  0  0
   23.7490    9.9470   30.0520 C   0  0  0  0  0  0  0  0  0  0  0  0
   24.4150    8.7370   32.4620 C   0  0  0  0  0  0  0  0  0  0  0  0
   23.8670   10.7190   31.2080 C   0  0  0  0  0  0  0  0  0  0  0  0
   24.2000   10.1130   32.4140 C   0  0  0  0  0  0  0  0  0  0  0  0
  1  4  1  0  0  0  0
  1 25  1  1  0  0  0
  1 12  1  0  0  0  0
  2  3  2  0  0  0  0
  2  5  1  0  0  0  0
  2  4  1  0  0  0  0
  5  6  1  0  0  0  0
  6  8  1  0  0  0  0
  8  7  1  6  0  0  0
  8  9  1  0  0  0  0
  9 11  2  0  0  0  0
  9 10  1  0  0  0  0
 12 14  1  0  0  0  0
 12 13  2  0  0  0  0
 15 14  1  6  0  0  0
 15 22  1  0  0  0  0
 15 16  1  0  0  0  0
 16 17  2  0  0  0  0
 16 21  1  0  0  0  0
 17 18  1  0  0  0  0
 18 19  2  0  0  0  0
 19 20  1  0  0  0  0
 20 21  2  0  0  0  0
 22 24  2  0  0  0  0
 22 23  1  0  0  0  0
 25 26  1  0  0  0  0
 26 27  1  0  0  0  0
 27 28  1  0  0  0  0
 28 30  2  0  0  0  0
 28 29  1  0  0  0  0
 29 31  2  0  0  0  0
 30 32  1  0  0  0  0
 31 33  1  0  0  0  0
 32 33  2  0  0  0  0
M  END
>  <COMPND>
    UNNAMED

>  <AUTHOR>
    GENERATED BY OPEN BABEL 2.4.90

>  <MASTER>
        0    0    0    0    0    0    0    0   33    0   33    0

