__2pgt_A_rec_20gs_cbd_lig_min.pdb
 OpenBabel10191908403D

 22 24  0  0  0  0  0  0  0  0999 V2000
   23.4920    5.4010   25.6900 C   0  0  0  0  0  0  0  0  0  0  0  0
   22.8100    6.4700   26.2840 C   0  0  0  0  0  0  0  0  0  0  0  0
   21.4830    6.9180   25.6470 N   0  0  0  0  0  0  0  0  0  0  0  0
   23.3620    7.0720   27.4360 C   0  0  0  0  0  0  0  0  0  0  0  0
   22.6950    8.1890   28.1230 C   0  0  0  0  0  0  0  0  0  0  0  0
   21.6020    8.5810   27.6160 O   0  0  0  0  0  0  0  0  0  0  0  0
   23.1960    8.8680   29.3330 C   0  0  0  0  0  0  0  0  0  0  0  0
   22.5110    9.9600   29.9680 C   0  0  0  0  0  0  0  0  0  0  0  0
   23.0660   10.5450   31.1290 C   0  0  0  0  0  0  0  0  0  0  0  0
   24.2810   10.0820   31.6700 C   0  0  0  0  0  0  0  0  0  0  0  0
   24.9800    9.0050   31.0600 C   0  0  0  0  0  0  0  0  0  0  0  0
   24.4430    8.3920   29.8900 C   0  0  0  0  0  0  0  0  0  0  0  0
   25.1040    7.2790   29.2050 C   0  0  0  0  0  0  0  0  0  0  0  0
   26.1800    6.8640   29.6960 O   0  0  0  0  0  0  0  0  0  0  0  0
   24.6250    6.5750   27.9770 C   0  0  0  0  0  0  0  0  0  0  0  0
   25.3020    5.4690   27.3180 C   0  0  0  0  0  0  0  0  0  0  0  0
   24.7290    4.8730   26.1610 C   0  0  0  0  0  0  0  0  0  0  0  0
   26.5790    4.9170   27.8020 N   0  0  0  0  0  0  0  0  0  0  0  0
   22.7580    4.6520   24.2940 S   0  0  0  0  0  0  0  0  0  0  0  0
   22.5300    5.6790   23.1890 O   0  0  0  0  0  0  0  0  0  0  0  0
   21.4700    4.1720   24.9120 O   0  0  0  0  0  0  0  0  0  0  0  0
   23.8530    3.6830   23.8090 O   0  0  0  0  0  0  0  0  0  0  0  0
  1 19  1  0  0  0  0
  1  2  2  0  0  0  0
  1 17  1  0  0  0  0
  2  3  1  0  0  0  0
  2  4  1  0  0  0  0
  4 15  2  0  0  0  0
  4  5  1  0  0  0  0
  5  6  2  0  0  0  0
  5  7  1  0  0  0  0
  7  8  2  0  0  0  0
  7 12  1  0  0  0  0
  8  9  1  0  0  0  0
  9 10  2  0  0  0  0
 10 11  1  0  0  0  0
 11 12  2  0  0  0  0
 12 13  1  0  0  0  0
 13 15  1  0  0  0  0
 13 14  2  0  0  0  0
 15 16  1  0  0  0  0
 16 17  2  0  0  0  0
 16 18  1  0  0  0  0
 19 20  1  0  0  0  0
 19 22  1  0  0  0  0
 19 21  1  0  0  0  0
M  END
>  <COMPND>
    UNNAMED

>  <AUTHOR>
    GENERATED BY OPEN BABEL 2.4.90

>  <MASTER>
        0    0    0    0    0    0    0    0   22    0   22    0

