__3csh_A_rec_1zgn_gsh_lig_min.pdb
 OpenBabel10191906463D

 20 19  0  0  1  0  0  0  0  0999 V2000
   20.7240    3.8490   27.2120 C   0  0  0  0  0  0  0  0  0  0  0  0
   21.7670    3.6630   26.5590 O   0  0  0  0  0  0  0  0  0  0  0  0
   20.6730    4.4570   28.4080 N   0  0  0  0  0  0  0  0  0  0  0  0
   19.3360    3.3870   26.7020 C   0  0  0  0  0  0  0  0  0  0  0  0
   19.3710    3.0490   25.1750 C   0  0  0  0  0  0  0  0  0  0  0  0
   18.3360    1.5180   23.6520 N   0  0  0  0  0  0  0  0  0  0  0  0
   18.0630    2.3250   24.7290 C   0  0  2  0  0  0  0  0  0  0  0  0
   16.9990    3.2690   24.4890 C   0  0  0  0  0  0  0  0  0  0  0  0
   16.7120    3.5790   23.3250 O   0  0  0  0  0  0  0  0  0  0  0  0
   16.3770    3.7630   25.5410 O   0  0  0  0  0  0  0  0  0  0  0  0
   21.8910    4.9640   29.0630 C   0  0  2  0  0  0  0  0  0  0  0  0
   21.8560    4.5570   30.5480 C   0  0  0  0  0  0  0  0  0  0  0  0
   20.7870    4.4630   31.1770 O   0  0  0  0  0  0  0  0  0  0  0  0
   23.0670    4.3110   31.1300 N   0  0  0  0  0  0  0  0  0  0  0  0
   23.2270    3.9160   32.5500 C   0  0  0  0  0  0  0  0  0  0  0  0
   23.6310    2.4490   32.6590 C   0  0  0  0  0  0  0  0  0  0  0  0
   23.8150    2.0190   33.8110 O   0  0  0  0  0  0  0  0  0  0  0  0
   23.7520    1.7650   31.6110 O   0  0  0  0  0  0  0  0  0  0  0  0
   21.9350    6.5110   28.9750 C   0  0  0  0  0  0  0  0  0  0  0  0
   20.7330    7.1640   27.7730 S   0  0  0  0  0  0  0  0  0  0  0  0
  1  2  2  0  0  0  0
  1  4  1  0  0  0  0
  1  3  1  0  0  0  0
  3 11  1  0  0  0  0
  4  5  1  0  0  0  0
  5  7  1  0  0  0  0
  7  6  1  6  0  0  0
  7  8  1  0  0  0  0
  8  9  2  0  0  0  0
  8 10  1  0  0  0  0
 11 19  1  1  0  0  0
 11 12  1  0  0  0  0
 12 14  1  0  0  0  0
 12 13  2  0  0  0  0
 14 15  1  0  0  0  0
 15 16  1  0  0  0  0
 16 18  2  0  0  0  0
 16 17  1  0  0  0  0
 19 20  1  0  0  0  0
M  END
>  <COMPND>
    UNNAMED

>  <AUTHOR>
    GENERATED BY OPEN BABEL 2.4.90

>  <MASTER>
        0    0    0    0    0    0    0    0   20    0   20    0

