__3csh_A_rec_5djl_gsh_lig_min.pdb
 OpenBabel10191906163D

 20 19  0  0  1  0  0  0  0  0999 V2000
   20.7670    3.8660   27.1910 C   0  0  0  0  0  0  0  0  0  0  0  0
   21.7840    3.3740   26.7050 O   0  0  0  0  0  0  0  0  0  0  0  0
   20.8200    4.6990   28.3840 N   0  0  0  0  0  0  0  0  0  0  0  0
   19.3940    3.6380   26.5460 C   0  0  0  0  0  0  0  0  0  0  0  0
   19.4710    3.0620   25.1360 C   0  0  0  0  0  0  0  0  0  0  0  0
   18.3480    1.4400   23.7380 N   0  0  0  0  0  0  0  0  0  0  0  0
   18.1520    2.3450   24.8050 C   0  0  2  0  0  0  0  0  0  0  0  0
   17.0770    3.3610   24.4040 C   0  0  0  0  0  0  0  0  0  0  0  0
   16.8850    3.5970   23.1790 O   0  0  0  0  0  0  0  0  0  0  0  0
   16.3860    3.9580   25.2700 O   0  0  0  0  0  0  0  0  0  0  0  0
   22.0620    4.9850   29.0610 C   0  0  2  0  0  0  0  0  0  0  0  0
   21.9920    4.5460   30.5140 C   0  0  0  0  0  0  0  0  0  0  0  0
   20.9120    4.4150   31.0840 O   0  0  0  0  0  0  0  0  0  0  0  0
   23.2400    4.3030   31.2260 N   0  0  0  0  0  0  0  0  0  0  0  0
   23.2590    3.8990   32.6160 C   0  0  0  0  0  0  0  0  0  0  0  0
   23.6540    2.4510   32.7530 C   0  0  0  0  0  0  0  0  0  0  0  0
   23.7300    1.7140   31.7410 O   0  0  0  0  0  0  0  0  0  0  0  0
   23.9170    1.9880   33.8900 O   0  0  0  0  0  0  0  0  0  0  0  0
   22.3200    6.4670   29.0280 C   0  0  0  0  0  0  0  0  0  0  0  0
   21.0430    7.3290   28.1450 S   0  0  0  0  0  0  0  0  0  0  0  0
  1  2  2  0  0  0  0
  1  4  1  0  0  0  0
  1  3  1  0  0  0  0
  3 11  1  0  0  0  0
  4  5  1  0  0  0  0
  5  7  1  0  0  0  0
  7  6  1  6  0  0  0
  7  8  1  0  0  0  0
  8  9  2  0  0  0  0
  8 10  1  0  0  0  0
 11 19  1  1  0  0  0
 11 12  1  0  0  0  0
 12 14  1  0  0  0  0
 12 13  2  0  0  0  0
 14 15  1  0  0  0  0
 15 16  1  0  0  0  0
 16 17  2  0  0  0  0
 16 18  1  0  0  0  0
 19 20  1  0  0  0  0
M  END
>  <COMPND>
    UNNAMED

>  <AUTHOR>
    GENERATED BY OPEN BABEL 2.4.90

>  <MASTER>
        0    0    0    0    0    0    0    0   20    0   20    0

