__3csh_A_rec_1zgn_gsh_lig_docked.pdb
 OpenBabel10191910523D

 20 19  0  0  1  0  0  0  0  0999 V2000
   21.3310    4.1970   26.6760 C   0  0  0  0  0  0  0  0  0  0  0  0
   22.2840    4.7750   26.1200 O   0  0  0  0  0  0  0  0  0  0  0  0
   20.9660    4.3890   27.9530 N   0  0  0  0  0  0  0  0  0  0  0  0
   20.4420    3.1670   25.9340 C   0  0  0  0  0  0  0  0  0  0  0  0
   18.9440    3.2900   26.3660 C   0  0  0  0  0  0  0  0  0  0  0  0
   18.7740    1.7370   24.5500 N   0  0  0  0  0  0  0  0  0  0  0  0
   18.0110    2.5180   25.3830 C   0  0  2  0  0  0  0  0  0  0  0  0
   17.1280    3.4180   24.6840 C   0  0  0  0  0  0  0  0  0  0  0  0
   17.0900    3.3940   23.4470 O   0  0  0  0  0  0  0  0  0  0  0  0
   16.3940    4.2370   25.4120 O   0  0  0  0  0  0  0  0  0  0  0  0
   21.6920    5.3270   28.8260 C   0  0  2  0  0  0  0  0  0  0  0  0
   21.6320    4.8000   30.2720 C   0  0  0  0  0  0  0  0  0  0  0  0
   20.5530    4.6680   30.8770 O   0  0  0  0  0  0  0  0  0  0  0  0
   22.8320    4.4930   30.8480 N   0  0  0  0  0  0  0  0  0  0  0  0
   22.9680    3.9800   32.2330 C   0  0  0  0  0  0  0  0  0  0  0  0
   23.5880    2.5870   32.2340 C   0  0  0  0  0  0  0  0  0  0  0  0
   24.1800    2.2550   31.1930 O   0  0  0  0  0  0  0  0  0  0  0  0
   23.4770    1.8650   33.2570 O   0  0  0  0  0  0  0  0  0  0  0  0
   21.0200    6.7220   28.7790 C   0  0  0  0  0  0  0  0  0  0  0  0
   22.1440    8.0460   29.3280 S   0  0  0  0  0  0  0  0  0  0  0  0
  1  2  2  0  0  0  0
  1  4  1  0  0  0  0
  1  3  1  0  0  0  0
  3 11  1  0  0  0  0
  4  5  1  0  0  0  0
  5  7  1  0  0  0  0
  7  6  1  6  0  0  0
  7  8  1  0  0  0  0
  8  9  2  0  0  0  0
  8 10  1  0  0  0  0
 11 19  1  1  0  0  0
 11 12  1  0  0  0  0
 12 14  1  0  0  0  0
 12 13  2  0  0  0  0
 14 15  1  0  0  0  0
 15 16  1  0  0  0  0
 16 18  2  0  0  0  0
 16 17  1  0  0  0  0
 19 20  1  0  0  0  0
M  END
>  <MODEL>
      13

>  <COMPND>
    UNNAMED

>  <AUTHOR>
    GENERATED BY OPEN BABEL 2.4.90

>  <MASTER>
        0    0    0    0    0    0    0    0   20    0   20    0

