__3csi_B_rec_1pgt_gtx_lig_docked.pdb
 OpenBabel10191910223D

 26 25  0  0  1  0  0  0  0  0999 V2000
   21.8940    5.1140   28.9250 C   0  0  2  0  0  0  0  0  0  0  0  0
   20.5190    4.4660   26.9920 C   0  0  0  0  0  0  0  0  0  0  0  0
   21.3480    4.9250   26.1470 O   0  0  0  0  0  0  0  0  0  0  0  0
   20.7410    4.4150   28.3200 N   0  0  0  0  0  0  0  0  0  0  0  0
   19.2510    3.8980   26.4810 C   0  0  0  0  0  0  0  0  0  0  0  0
   19.5110    2.9060   25.3080 C   0  0  0  0  0  0  0  0  0  0  0  0
   18.3590    0.9730   24.1810 N   0  0  0  0  0  0  0  0  0  0  0  0
   18.1400    2.2420   25.0200 C   0  0  2  0  0  0  0  0  0  0  0  0
   17.1380    3.1050   24.3220 C   0  0  0  0  0  0  0  0  0  0  0  0
   17.0420    3.3820   23.1040 O   0  0  0  0  0  0  0  0  0  0  0  0
   16.2940    3.8850   25.1040 O   0  0  0  0  0  0  0  0  0  0  0  0
   22.0540    4.4080   30.3450 C   0  0  0  0  0  0  0  0  0  0  0  0
   21.0440    4.3320   31.0320 O   0  0  0  0  0  0  0  0  0  0  0  0
   23.2400    4.0160   30.7430 N   0  0  0  0  0  0  0  0  0  0  0  0
   23.5830    3.7120   32.1420 C   0  0  0  0  0  0  0  0  0  0  0  0
   23.4640    2.2410   32.3720 C   0  0  0  0  0  0  0  0  0  0  0  0
   22.8320    1.7010   33.3410 O   0  0  0  0  0  0  0  0  0  0  0  0
   24.1310    1.5120   31.4750 O   0  0  0  0  0  0  0  0  0  0  0  0
   21.4270    6.5640   29.3180 C   0  0  0  0  0  0  0  0  0  0  0  0
   22.8750    7.5780   29.6010 S   0  0  0  0  0  0  0  0  0  0  0  0
   22.4120    9.2600   29.0810 C   0  0  0  0  0  0  0  0  0  0  0  0
   22.6910   10.2860   30.1770 C   0  0  0  0  0  0  0  0  0  0  0  0
   24.0730   10.1910   30.8260 C   0  0  0  0  0  0  0  0  0  0  0  0
   24.1880   10.0240   32.3570 C   0  0  0  0  0  0  0  0  0  0  0  0
   25.1070    8.8800   32.8510 C   0  0  0  0  0  0  0  0  0  0  0  0
   24.7380    8.2700   34.2210 C   0  0  0  0  0  0  0  0  0  0  0  0
  1  4  1  0  0  0  0
  1 19  1  1  0  0  0
  1 12  1  0  0  0  0
  2  3  2  0  0  0  0
  2  5  1  0  0  0  0
  2  4  1  0  0  0  0
  5  6  1  0  0  0  0
  6  8  1  0  0  0  0
  8  7  1  6  0  0  0
  8  9  1  0  0  0  0
  9 11  2  0  0  0  0
  9 10  1  0  0  0  0
 12 13  2  0  0  0  0
 12 14  1  0  0  0  0
 14 15  1  0  0  0  0
 15 16  1  0  0  0  0
 16 18  2  0  0  0  0
 16 17  1  0  0  0  0
 19 20  1  0  0  0  0
 20 21  1  0  0  0  0
 21 22  1  0  0  0  0
 22 23  1  0  0  0  0
 23 24  1  0  0  0  0
 24 25  1  0  0  0  0
 25 26  1  0  0  0  0
M  END
>  <MODEL>
       1

>  <COMPND>
    UNNAMED

>  <AUTHOR>
    GENERATED BY OPEN BABEL 2.4.90

>  <MASTER>
        0    0    0    0    0    0    0    0   26    0   26    0

