__3csj_B_rec_3gus_gsh_lig_min.pdb
 OpenBabel10191906483D

 20 19  0  0  1  0  0  0  0  0999 V2000
   20.4670    4.2760   27.3860 C   0  0  0  0  0  0  0  0  0  0  0  0
   21.5850    3.6870   26.9350 O   0  0  0  0  0  0  0  0  0  0  0  0
   20.4490    5.0470   28.4580 N   0  0  0  0  0  0  0  0  0  0  0  0
   19.1690    4.0970   26.6520 C   0  0  0  0  0  0  0  0  0  0  0  0
   19.3520    3.2580   25.4240 C   0  0  0  0  0  0  0  0  0  0  0  0
   18.3380    1.4210   24.2310 N   0  0  0  0  0  0  0  0  0  0  0  0
   18.0780    2.4890   25.1460 C   0  0  2  0  0  0  0  0  0  0  0  0
   16.9970    3.4020   24.5820 C   0  0  0  0  0  0  0  0  0  0  0  0
   16.7190    3.3020   23.3820 O   0  0  0  0  0  0  0  0  0  0  0  0
   16.4160    4.1270   25.3860 O   0  0  0  0  0  0  0  0  0  0  0  0
   21.6460    5.5690   29.1460 C   0  0  2  0  0  0  0  0  0  0  0  0
   21.7620    4.8230   30.4510 C   0  0  0  0  0  0  0  0  0  0  0  0
   20.6830    4.4920   31.1210 O   0  0  0  0  0  0  0  0  0  0  0  0
   22.9030    4.4930   30.9550 N   0  0  0  0  0  0  0  0  0  0  0  0
   23.0390    3.9370   32.2900 C   0  0  0  0  0  0  0  0  0  0  0  0
   23.3270    2.4590   32.3080 C   0  0  0  0  0  0  0  0  0  0  0  0
   23.1440    1.7810   31.3140 O   0  0  0  0  0  0  0  0  0  0  0  0
   23.7370    1.9340   33.3420 O   0  0  0  0  0  0  0  0  0  0  0  0
   21.2730    6.9800   29.3220 C   0  0  0  0  0  0  0  0  0  0  0  0
   22.4030    8.2020   28.6210 S   0  0  0  0  0  0  0  0  0  0  0  0
  1  2  2  0  0  0  0
  1  4  1  0  0  0  0
  1  3  1  0  0  0  0
  3 11  1  0  0  0  0
  4  5  1  0  0  0  0
  5  7  1  0  0  0  0
  7  6  1  6  0  0  0
  7  8  1  0  0  0  0
  8  9  2  0  0  0  0
  8 10  1  0  0  0  0
 11 19  1  1  0  0  0
 11 12  1  0  0  0  0
 12 14  1  0  0  0  0
 12 13  2  0  0  0  0
 14 15  1  0  0  0  0
 15 16  1  0  0  0  0
 16 17  2  0  0  0  0
 16 18  1  0  0  0  0
 19 20  1  0  0  0  0
M  END
>  <COMPND>
    UNNAMED

>  <AUTHOR>
    GENERATED BY OPEN BABEL 2.4.90

>  <MASTER>
        0    0    0    0    0    0    0    0   20    0   20    0

