__3csj_B_rec_20gs_cbd_lig_docked.pdb
 OpenBabel10191909483D

 22 24  0  0  0  0  0  0  0  0999 V2000
   23.2410    4.4370   26.1840 C   0  0  0  0  0  0  0  0  0  0  0  0
   22.5440    5.5490   26.6740 C   0  0  0  0  0  0  0  0  0  0  0  0
   21.0980    5.7600   26.1940 N   0  0  0  0  0  0  0  0  0  0  0  0
   23.1950    6.4090   27.5870 C   0  0  0  0  0  0  0  0  0  0  0  0
   22.5220    7.5870   28.1560 C   0  0  0  0  0  0  0  0  0  0  0  0
   21.3310    7.7870   27.7740 O   0  0  0  0  0  0  0  0  0  0  0  0
   23.1220    8.5300   29.1190 C   0  0  0  0  0  0  0  0  0  0  0  0
   22.4260    9.6720   29.6450 C   0  0  0  0  0  0  0  0  0  0  0  0
   23.0830   10.5170   30.5690 C   0  0  0  0  0  0  0  0  0  0  0  0
   24.4070   10.2640   30.9770 C   0  0  0  0  0  0  0  0  0  0  0  0
   25.1170    9.1430   30.4700 C   0  0  0  0  0  0  0  0  0  0  0  0
   24.4810    8.2700   29.5400 C   0  0  0  0  0  0  0  0  0  0  0  0
   25.1480    7.0950   28.9730 C   0  0  0  0  0  0  0  0  0  0  0  0
   26.3230    6.8690   29.3460 O   0  0  0  0  0  0  0  0  0  0  0  0
   24.5690    6.1260   27.9930 C   0  0  0  0  0  0  0  0  0  0  0  0
   25.2540    4.9650   27.4470 C   0  0  0  0  0  0  0  0  0  0  0  0
   24.5830    4.1090   26.5330 C   0  0  0  0  0  0  0  0  0  0  0  0
   26.6410    4.6190   27.8070 N   0  0  0  0  0  0  0  0  0  0  0  0
   22.3910    3.3710   25.0930 S   0  0  0  0  0  0  0  0  0  0  0  0
   21.0190    3.0080   25.6530 O   0  0  0  0  0  0  0  0  0  0  0  0
   23.3420    2.2030   25.0890 O   0  0  0  0  0  0  0  0  0  0  0  0
   22.1670    4.2570   23.8520 O   0  0  0  0  0  0  0  0  0  0  0  0
  1 19  1  0  0  0  0
  1  2  2  0  0  0  0
  1 17  1  0  0  0  0
  2  3  1  0  0  0  0
  2  4  1  0  0  0  0
  4 15  2  0  0  0  0
  4  5  1  0  0  0  0
  5  6  2  0  0  0  0
  5  7  1  0  0  0  0
  7  8  2  0  0  0  0
  7 12  1  0  0  0  0
  8  9  1  0  0  0  0
  9 10  2  0  0  0  0
 10 11  1  0  0  0  0
 11 12  2  0  0  0  0
 12 13  1  0  0  0  0
 13 15  1  0  0  0  0
 13 14  2  0  0  0  0
 15 16  1  0  0  0  0
 16 17  2  0  0  0  0
 16 18  1  0  0  0  0
 19 20  1  0  0  0  0
 19 22  1  0  0  0  0
 19 21  1  0  0  0  0
M  END
>  <MODEL>
      15

>  <COMPND>
    UNNAMED

>  <AUTHOR>
    GENERATED BY OPEN BABEL 2.4.90

>  <MASTER>
        0    0    0    0    0    0    0    0   22    0   22    0

