__3gus_A_rec_3gus_gsh_lig_docked.pdb
 OpenBabel10191910133D

 20 19  0  0  1  0  0  0  0  0999 V2000
   20.8700    4.0020   27.1270 C   0  0  0  0  0  0  0  0  0  0  0  0
   22.1220    3.6210   26.8310 O   0  0  0  0  0  0  0  0  0  0  0  0
   20.5780    4.7310   28.1890 N   0  0  0  0  0  0  0  0  0  0  0  0
   19.7330    3.6260   26.2210 C   0  0  0  0  0  0  0  0  0  0  0  0
   18.5630    3.1140   27.0050 C   0  0  0  0  0  0  0  0  0  0  0  0
   18.3740    1.2380   25.4970 N   0  0  0  0  0  0  0  0  0  0  0  0
   17.6530    2.3210   26.0910 C   0  0  2  0  0  0  0  0  0  0  0  0
   17.0590    3.2080   25.0030 C   0  0  0  0  0  0  0  0  0  0  0  0
   16.4510    4.2260   25.3520 O   0  0  0  0  0  0  0  0  0  0  0  0
   17.2980    2.8870   23.8420 O   0  0  0  0  0  0  0  0  0  0  0  0
   21.5660    5.4290   29.0350 C   0  0  2  0  0  0  0  0  0  0  0  0
   21.5260    4.7700   30.3900 C   0  0  0  0  0  0  0  0  0  0  0  0
   20.3970    4.7000   31.0570 O   0  0  0  0  0  0  0  0  0  0  0  0
   22.5780    4.2640   30.9400 N   0  0  0  0  0  0  0  0  0  0  0  0
   22.5930    3.7890   32.3120 C   0  0  0  0  0  0  0  0  0  0  0  0
   23.4430    2.5650   32.5230 C   0  0  0  0  0  0  0  0  0  0  0  0
   23.8530    1.9240   31.5730 O   0  0  0  0  0  0  0  0  0  0  0  0
   23.7130    2.2040   33.6680 O   0  0  0  0  0  0  0  0  0  0  0  0
   21.0130    6.7910   29.0410 C   0  0  0  0  0  0  0  0  0  0  0  0
   22.1920    8.1340   29.3040 S   0  0  0  0  0  0  0  0  0  0  0  0
  1  2  2  0  0  0  0
  1  4  1  0  0  0  0
  1  3  1  0  0  0  0
  3 11  1  0  0  0  0
  4  5  1  0  0  0  0
  5  7  1  0  0  0  0
  7  6  1  6  0  0  0
  7  8  1  0  0  0  0
  8  9  2  0  0  0  0
  8 10  1  0  0  0  0
 11 19  1  1  0  0  0
 11 12  1  0  0  0  0
 12 14  1  0  0  0  0
 12 13  2  0  0  0  0
 14 15  1  0  0  0  0
 15 16  1  0  0  0  0
 16 17  2  0  0  0  0
 16 18  1  0  0  0  0
 19 20  1  0  0  0  0
M  END
>  <MODEL>
       3

>  <COMPND>
    UNNAMED

>  <AUTHOR>
    GENERATED BY OPEN BABEL 2.4.90

>  <MASTER>
        0    0    0    0    0    0    0    0   20    0   20    0

