__3gus_A_rec_1px6_gsh_lig_docked.pdb
 OpenBabel10191910133D

 20 19  0  0  1  0  0  0  0  0999 V2000
   21.0060    4.1910   26.7820 C   0  0  0  0  0  0  0  0  0  0  0  0
   22.1410    4.3860   26.2830 O   0  0  0  0  0  0  0  0  0  0  0  0
   20.6850    4.5450   28.0270 N   0  0  0  0  0  0  0  0  0  0  0  0
   19.8770    3.5240   26.0090 C   0  0  0  0  0  0  0  0  0  0  0  0
   18.6470    3.1640   26.8490 C   0  0  0  0  0  0  0  0  0  0  0  0
   18.1720    1.3520   25.2480 N   0  0  0  0  0  0  0  0  0  0  0  0
   17.5570    2.4390   26.0580 C   0  0  2  0  0  0  0  0  0  0  0  0
   16.8020    3.4250   25.1390 C   0  0  0  0  0  0  0  0  0  0  0  0
   16.5510    3.0760   23.9620 O   0  0  0  0  0  0  0  0  0  0  0  0
   16.4640    4.5340   25.5990 O   0  0  0  0  0  0  0  0  0  0  0  0
   21.6230    5.1990   28.9290 C   0  0  2  0  0  0  0  0  0  0  0  0
   21.4480    4.6530   30.3560 C   0  0  0  0  0  0  0  0  0  0  0  0
   20.3480    4.7230   30.9270 O   0  0  0  0  0  0  0  0  0  0  0  0
   22.5470    4.1250   30.9150 N   0  0  0  0  0  0  0  0  0  0  0  0
   22.5510    3.5830   32.2680 C   0  0  0  0  0  0  0  0  0  0  0  0
   23.4930    2.4390   32.5430 C   0  0  0  0  0  0  0  0  0  0  0  0
   23.9650    2.3370   33.6990 O   0  0  0  0  0  0  0  0  0  0  0  0
   23.7610    1.6430   31.6180 O   0  0  0  0  0  0  0  0  0  0  0  0
   21.3680    6.7210   28.9140 C   0  0  0  0  0  0  0  0  0  0  0  0
   22.7770    7.6950   29.5940 S   0  0  0  0  0  0  0  0  0  0  0  0
  1  2  2  0  0  0  0
  1  4  1  0  0  0  0
  1  3  1  0  0  0  0
  3 11  1  0  0  0  0
  4  5  1  0  0  0  0
  5  7  1  0  0  0  0
  7  6  1  6  0  0  0
  7  8  1  0  0  0  0
  8 10  2  0  0  0  0
  8  9  1  0  0  0  0
 11 19  1  1  0  0  0
 11 12  1  0  0  0  0
 12 14  1  0  0  0  0
 12 13  2  0  0  0  0
 14 15  1  0  0  0  0
 15 16  1  0  0  0  0
 16 18  2  0  0  0  0
 16 17  1  0  0  0  0
 19 20  1  0  0  0  0
M  END
>  <MODEL>
      10

>  <COMPND>
    UNNAMED

>  <AUTHOR>
    GENERATED BY OPEN BABEL 2.4.90

>  <MASTER>
        0    0    0    0    0    0    0    0   20    0   20    0

