__3gus_A_rec_5djl_gsh_lig_docked.pdb
 OpenBabel10191910133D

 20 19  0  0  1  0  0  0  0  0999 V2000
   21.4460    4.2200   27.1220 C   0  0  0  0  0  0  0  0  0  0  0  0
   22.5940    3.8000   27.2560 O   0  0  0  0  0  0  0  0  0  0  0  0
   20.8930    5.2230   28.0220 N   0  0  0  0  0  0  0  0  0  0  0  0
   20.5480    3.7160   25.9850 C   0  0  0  0  0  0  0  0  0  0  0  0
   19.1110    3.4460   26.4180 C   0  0  0  0  0  0  0  0  0  0  0  0
   19.1390    2.7350   24.1070 N   0  0  0  0  0  0  0  0  0  0  0  0
   18.3670    2.7130   25.2890 C   0  0  2  0  0  0  0  0  0  0  0  0
   17.0160    3.3840   25.0150 C   0  0  0  0  0  0  0  0  0  0  0  0
   16.4820    4.0750   25.9250 O   0  0  0  0  0  0  0  0  0  0  0  0
   16.4390    3.2610   23.9040 O   0  0  0  0  0  0  0  0  0  0  0  0
   21.6570    5.7710   29.1170 C   0  0  2  0  0  0  0  0  0  0  0  0
   21.4390    4.9560   30.3800 C   0  0  0  0  0  0  0  0  0  0  0  0
   20.3080    4.7000   30.7820 O   0  0  0  0  0  0  0  0  0  0  0  0
   22.6100    4.5000   31.1210 N   0  0  0  0  0  0  0  0  0  0  0  0
   22.4880    3.7330   32.3430 C   0  0  0  0  0  0  0  0  0  0  0  0
   23.5330    2.6500   32.4080 C   0  0  0  0  0  0  0  0  0  0  0  0
   24.0360    2.1860   31.3570 O   0  0  0  0  0  0  0  0  0  0  0  0
   23.9070    2.2200   33.5270 O   0  0  0  0  0  0  0  0  0  0  0  0
   21.2070    7.1820   29.3830 C   0  0  0  0  0  0  0  0  0  0  0  0
   22.5780    8.3120   29.3760 S   0  0  0  0  0  0  0  0  0  0  0  0
  1  2  2  0  0  0  0
  1  4  1  0  0  0  0
  1  3  1  0  0  0  0
  3 11  1  0  0  0  0
  4  5  1  0  0  0  0
  5  7  1  0  0  0  0
  7  6  1  6  0  0  0
  7  8  1  0  0  0  0
  8  9  2  0  0  0  0
  8 10  1  0  0  0  0
 11 19  1  1  0  0  0
 11 12  1  0  0  0  0
 12 14  1  0  0  0  0
 12 13  2  0  0  0  0
 14 15  1  0  0  0  0
 15 16  1  0  0  0  0
 16 17  2  0  0  0  0
 16 18  1  0  0  0  0
 19 20  1  0  0  0  0
M  END
>  <MODEL>
       9

>  <COMPND>
    UNNAMED

>  <AUTHOR>
    GENERATED BY OPEN BABEL 2.4.90

>  <MASTER>
        0    0    0    0    0    0    0    0   20    0   20    0

