__3hkr_A_rec_19gs_gsh_lig_min.pdb
 OpenBabel10191908243D

 20 19  0  0  1  0  0  0  0  0999 V2000
   20.5260    4.3100   27.2120 C   0  0  0  0  0  0  0  0  0  0  0  0
   21.5790    3.7890   26.8300 O   0  0  0  0  0  0  0  0  0  0  0  0
   20.4680    5.2220   28.1750 N   0  0  0  0  0  0  0  0  0  0  0  0
   19.1920    3.9480   26.5900 C   0  0  0  0  0  0  0  0  0  0  0  0
   19.3220    3.0740   25.3670 C   0  0  0  0  0  0  0  0  0  0  0  0
   18.4320    0.8530   24.7600 N   0  0  0  0  0  0  0  0  0  0  0  0
   18.0670    2.2680   25.0620 C   0  0  2  0  0  0  0  0  0  0  0  0
   17.3490    2.8980   23.8750 C   0  0  0  0  0  0  0  0  0  0  0  0
   16.3950    3.6820   24.0800 O   0  0  0  0  0  0  0  0  0  0  0  0
   17.7620    2.5930   22.7410 O   0  0  0  0  0  0  0  0  0  0  0  0
   21.6450    5.6830   28.8910 C   0  0  2  0  0  0  0  0  0  0  0  0
   21.6940    5.0010   30.2540 C   0  0  0  0  0  0  0  0  0  0  0  0
   20.6750    4.5420   30.7620 O   0  0  0  0  0  0  0  0  0  0  0  0
   22.8890    4.9280   30.8350 N   0  0  0  0  0  0  0  0  0  0  0  0
   23.0480    4.3080   32.1370 C   0  0  0  0  0  0  0  0  0  0  0  0
   23.5420    2.8810   32.0350 C   0  0  0  0  0  0  0  0  0  0  0  0
   23.5580    2.1770   33.0700 O   0  0  0  0  0  0  0  0  0  0  0  0
   23.9140    2.4660   30.9160 O   0  0  0  0  0  0  0  0  0  0  0  0
   21.5820    7.2030   29.0610 C   0  0  0  0  0  0  0  0  0  0  0  0
   22.6080    8.1350   27.8800 S   0  0  0  0  0  0  0  0  0  0  0  0
  1  2  2  0  0  0  0
  1  4  1  0  0  0  0
  1  3  1  0  0  0  0
  3 11  1  0  0  0  0
  4  5  1  0  0  0  0
  5  7  1  0  0  0  0
  7  6  1  6  0  0  0
  7  8  1  0  0  0  0
  8 10  2  0  0  0  0
  8  9  1  0  0  0  0
 11 19  1  1  0  0  0
 11 12  1  0  0  0  0
 12 14  1  0  0  0  0
 12 13  2  0  0  0  0
 14 15  1  0  0  0  0
 15 16  1  0  0  0  0
 16 18  2  0  0  0  0
 16 17  1  0  0  0  0
 19 20  1  0  0  0  0
M  END
>  <COMPND>
    UNNAMED

>  <AUTHOR>
    GENERATED BY OPEN BABEL 2.4.90

>  <MASTER>
        0    0    0    0    0    0    0    0   20    0   20    0

