__3ie3_B_rec_3csi_lz6_lig_min.pdb
 OpenBabel10191908253D

 38 38  0  0  1  0  0  0  0  0999 V2000
   21.8360    4.7490   28.8490 C   0  0  1  0  0  0  0  0  0  0  0  0
   21.6220    4.5590   30.3370 C   0  0  0  0  0  0  0  0  0  0  0  0
   20.5010    4.6590   30.8160 O   0  0  0  0  0  0  0  0  0  0  0  0
   22.7180    4.2440   31.0450 N   0  0  0  0  0  0  0  0  0  0  0  0
   22.7190    3.6440   32.3800 C   0  0  0  0  0  0  0  0  0  0  0  0
   23.5960    2.4180   32.5930 C   0  0  0  0  0  0  0  0  0  0  0  0
   23.9910    2.1690   33.7600 O   0  0  0  0  0  0  0  0  0  0  0  0
   23.9110    1.6760   31.6360 O   0  0  0  0  0  0  0  0  0  0  0  0
   20.6710    3.9320   26.8690 C   0  0  0  0  0  0  0  0  0  0  0  0
   21.7090    3.7150   26.2350 O   0  0  0  0  0  0  0  0  0  0  0  0
   20.6350    4.5680   28.0430 N   0  0  0  0  0  0  0  0  0  0  0  0
   19.3370    3.4580   26.3400 C   0  0  0  0  0  0  0  0  0  0  0  0
   19.4390    2.8930   24.9130 C   0  0  0  0  0  0  0  0  0  0  0  0
   18.1100    2.2480   24.4860 C   0  0  2  0  0  0  0  0  0  0  0  0
   18.3540    1.4240   23.2910 N   0  0  0  0  0  0  0  0  0  0  0  0
   16.3590    3.8530   25.1210 O   0  0  0  0  0  0  0  0  0  0  0  0
   17.0630    3.3040   24.1880 C   0  0  0  0  0  0  0  0  0  0  0  0
   16.9290    3.5740   22.9720 O   0  0  0  0  0  0  0  0  0  0  0  0
   22.6020    6.0300   28.4950 C   0  0  0  0  0  0  0  0  0  0  0  0
   21.8050    7.5230   28.9860 S   0  0  0  0  0  0  0  0  0  0  0  0
   22.9230    8.8940   28.9630 C   0  0  0  0  0  0  0  0  0  0  0  0
   24.3320    8.4530   29.3520 C   0  0  0  0  0  0  0  0  0  0  0  0
   24.4070    8.3070   30.8090 N   0  0  0  0  0  0  0  0  0  0  0  0
   24.2530    9.4310   31.6480 C   0  0  0  0  0  0  0  0  0  0  0  0
   24.5120    9.3220   33.0120 C   0  0  0  0  0  0  0  0  0  0  0  0
   24.3550   10.4280   33.8470 C   0  0  0  0  0  0  0  0  0  0  0  0
   23.9460   11.6550   33.3450 C   0  0  0  0  0  0  0  0  0  0  0  0
   23.6900   11.7660   31.9860 C   0  0  0  0  0  0  0  0  0  0  0  0
   23.8440   10.6680   31.1440 C   0  0  0  0  0  0  0  0  0  0  0  0
   23.7990   12.8470   34.2680 C   0  0  0  0  0  0  0  0  0  0  0  0
   24.7650   13.9590   33.8520 C   0  0  0  0  0  0  0  0  0  0  0  0
   25.6720   14.4460   34.9880 C   0  0  0  0  0  0  0  0  0  0  0  0
   24.8750   15.2270   36.0220 C   0  0  0  0  0  0  0  0  0  0  0  0
   24.6520   14.7060   37.1540 O   0  0  0  0  0  0  0  0  0  0  0  0
   24.4620   16.3760   35.7060 O   0  0  0  0  0  0  0  0  0  0  0  0
   24.6540    6.9930   31.4160 C   0  0  0  0  0  0  0  0  0  0  0  0
   25.7440    6.2630   30.6100 C   0  0  0  0  0  0  0  0  0  0  0  0
   26.2380    4.7190   31.4080 Cl  0  0  0  0  0  0  0  0  0  0  0  0
  1 11  1  0  0  0  0
  1 19  1  1  0  0  0
  1  2  1  0  0  0  0
  2  3  2  0  0  0  0
  2  4  1  0  0  0  0
  4  5  1  0  0  0  0
  5  6  1  0  0  0  0
  6  8  2  0  0  0  0
  6  7  1  0  0  0  0
  9 10  2  0  0  0  0
  9 12  1  0  0  0  0
  9 11  1  0  0  0  0
 12 13  1  0  0  0  0
 13 14  1  0  0  0  0
 14 15  1  6  0  0  0
 14 17  1  0  0  0  0
 16 17  2  0  0  0  0
 17 18  1  0  0  0  0
 19 20  1  0  0  0  0
 20 21  1  0  0  0  0
 21 22  1  0  0  0  0
 22 23  1  0  0  0  0
 23 36  1  0  0  0  0
 23 24  1  0  0  0  0
 24 29  2  0  0  0  0
 24 25  1  0  0  0  0
 25 26  2  0  0  0  0
 26 27  1  0  0  0  0
 27 28  2  0  0  0  0
 27 30  1  0  0  0  0
 28 29  1  0  0  0  0
 30 31  1  0  0  0  0
 31 32  1  0  0  0  0
 32 33  1  0  0  0  0
 33 35  2  0  0  0  0
 33 34  1  0  0  0  0
 36 37  1  0  0  0  0
 37 38  1  0  0  0  0
M  END
>  <COMPND>
    UNNAMED

>  <AUTHOR>
    GENERATED BY OPEN BABEL 2.4.90

>  <MASTER>
        0    0    0    0    0    0    0    0   38    0   38    0

