__3ie3_B_rec_3csj_cbl_lig_min.pdb
 OpenBabel10191906493D

 19 19  0  0  0  0  0  0  0  0999 V2000
   24.1440    9.6770   31.6510 C   0  0  0  0  0  0  0  0  0  0  0  0
   23.3840   10.3680   30.7030 C   0  0  0  0  0  0  0  0  0  0  0  0
   22.6560    9.6890   29.7310 C   0  0  0  0  0  0  0  0  0  0  0  0
   22.6870    8.3010   29.6930 C   0  0  0  0  0  0  0  0  0  0  0  0
   23.4340    7.5960   30.6350 C   0  0  0  0  0  0  0  0  0  0  0  0
   24.1620    8.2790   31.6100 C   0  0  0  0  0  0  0  0  0  0  0  0
   21.8880    7.5500   28.6520 C   0  0  0  0  0  0  0  0  0  0  0  0
   22.7010    7.1860   27.4120 C   0  0  0  0  0  0  0  0  0  0  0  0
   21.9270    7.3260   26.0940 C   0  0  0  0  0  0  0  0  0  0  0  0
   22.1040    8.7190   25.5250 C   0  0  0  0  0  0  0  0  0  0  0  0
   21.2650    9.5790   25.8890 O   0  0  0  0  0  0  0  0  0  0  0  0
   23.0550    8.9630   24.7390 O   0  0  0  0  0  0  0  0  0  0  0  0
   24.8840   10.3800   32.6240 N   0  0  0  0  0  0  0  0  0  0  0  0
   25.8280    9.6830   33.5030 C   0  0  0  0  0  0  0  0  0  0  0  0
   27.2180   10.2290   33.1720 C   0  0  0  0  0  0  0  0  0  0  0  0
   27.6770    9.8120   31.4900 Cl  0  0  0  0  0  0  0  0  0  0  0  0
   24.7440   11.8300   32.7540 C   0  0  0  0  0  0  0  0  0  0  0  0
   23.7740   12.1060   33.8930 C   0  0  0  0  0  0  0  0  0  0  0  0
   23.8130   13.8700   34.1400 Cl  0  0  0  0  0  0  0  0  0  0  0  0
  1  2  2  0  0  0  0
  1  6  1  0  0  0  0
  1 13  1  0  0  0  0
  2  3  1  0  0  0  0
  3  4  2  0  0  0  0
  4  7  1  0  0  0  0
  4  5  1  0  0  0  0
  5  6  2  0  0  0  0
  7  8  1  0  0  0  0
  8  9  1  0  0  0  0
  9 10  1  0  0  0  0
 10 12  2  0  0  0  0
 10 11  1  0  0  0  0
 13 17  1  0  0  0  0
 13 14  1  0  0  0  0
 14 15  1  0  0  0  0
 15 16  1  0  0  0  0
 17 18  1  0  0  0  0
 18 19  1  0  0  0  0
M  END
>  <COMPND>
    UNNAMED

>  <AUTHOR>
    GENERATED BY OPEN BABEL 2.4.90

>  <MASTER>
        0    0    0    0    0    0    0    0   19    0   19    0

