__3kmn_A_rec_2pgt_gpr_lig_min.pdb
 OpenBabel10191907293D

 35 37  0  0  1  0  0  0  0  0999 V2000
   21.9250    5.2490   28.7140 C   0  0  2  0  0  0  0  0  0  0  0  0
   20.6680    4.0030   26.9850 C   0  0  0  0  0  0  0  0  0  0  0  0
   21.6700    3.4040   26.5040 O   0  0  0  0  0  0  0  0  0  0  0  0
   20.6790    4.8600   28.0100 N   0  0  0  0  0  0  0  0  0  0  0  0
   19.3750    3.6760   26.3610 C   0  0  0  0  0  0  0  0  0  0  0  0
   19.4360    2.8240   25.1420 C   0  0  0  0  0  0  0  0  0  0  0  0
   18.1650    1.1310   23.7700 N   0  0  0  0  0  0  0  0  0  0  0  0
   18.0460    2.2070   24.8570 C   0  0  2  0  0  0  0  0  0  0  0  0
   17.0510    3.2930   24.4910 C   0  0  0  0  0  0  0  0  0  0  0  0
   16.3190    3.9230   25.2970 O   0  0  0  0  0  0  0  0  0  0  0  0
   16.8110    3.4040   23.1610 O   0  0  0  0  0  0  0  0  0  0  0  0
   21.8650    4.6090   30.1440 C   0  0  0  0  0  0  0  0  0  0  0  0
   20.7790    4.4990   30.6640 O   0  0  0  0  0  0  0  0  0  0  0  0
   22.9670    4.2520   30.6900 N   0  0  0  0  0  0  0  0  0  0  0  0
   22.9500    3.8820   32.1280 C   0  0  0  0  0  0  0  0  0  0  0  0
   23.2470    2.4430   32.2830 C   0  0  0  0  0  0  0  0  0  0  0  0
   23.5930    1.8430   33.3250 O   0  0  0  0  0  0  0  0  0  0  0  0
   23.1900    1.6660   31.1950 O   0  0  0  0  0  0  0  0  0  0  0  0
   22.0660    6.7920   28.8610 C   0  0  0  0  0  0  0  0  0  0  0  0
   21.8640    7.6520   27.3190 S   0  0  0  0  0  0  0  0  0  0  0  0
   23.4220    8.2470   27.3730 C   0  0  2  0  0  0  0  0  0  0  0  0
   24.5480    7.3950   27.8340 C   0  0  0  0  0  0  0  0  0  0  0  0
   25.0480    6.3670   26.9740 C   0  0  0  0  0  0  0  0  0  0  0  0
   26.0870    5.5740   27.3890 C   0  0  0  0  0  0  0  0  0  0  0  0
   26.6770    5.8080   28.6500 C   0  0  0  0  0  0  0  0  0  0  0  0
   26.2450    6.8350   29.5030 C   0  0  0  0  0  0  0  0  0  0  0  0
   25.1290    7.5970   29.1190 C   0  0  0  0  0  0  0  0  0  0  0  0
   24.6170    8.7360   29.9640 C   0  0  0  0  0  0  0  0  0  0  0  0
   24.8830    8.7960   31.3680 C   0  0  0  0  0  0  0  0  0  0  0  0
   24.4330    9.9130   32.0840 C   0  0  0  0  0  0  0  0  0  0  0  0
   23.7210   10.9350   31.4600 C   0  0  0  0  0  0  0  0  0  0  0  0
   23.4230   10.8480   30.0950 C   0  0  0  0  0  0  0  0  0  0  0  0
   23.8720    9.7400   29.3830 C   0  0  0  0  0  0  0  0  0  0  0  0
   23.5170    9.6870   27.8920 C   0  0  1  0  0  0  0  0  0  0  0  0
   24.7250   10.2940   27.3190 O   0  0  0  0  0  0  0  0  0  0  0  0
  1  4  1  0  0  0  0
  1 19  1  1  0  0  0
  1 12  1  0  0  0  0
  2  3  2  0  0  0  0
  2  5  1  0  0  0  0
  2  4  1  0  0  0  0
  5  6  1  0  0  0  0
  6  8  1  0  0  0  0
  8  7  1  6  0  0  0
  8  9  1  0  0  0  0
  9 11  2  0  0  0  0
  9 10  1  0  0  0  0
 12 14  1  0  0  0  0
 12 13  2  0  0  0  0
 14 15  1  0  0  0  0
 15 16  1  0  0  0  0
 16 18  2  0  0  0  0
 16 17  1  0  0  0  0
 19 20  1  0  0  0  0
 21 20  1  1  0  0  0
 21 22  1  0  0  0  0
 21 34  1  0  0  0  0
 22 23  2  0  0  0  0
 22 27  1  0  0  0  0
 23 24  1  0  0  0  0
 24 25  2  0  0  0  0
 25 26  1  0  0  0  0
 26 27  2  0  0  0  0
 27 28  1  0  0  0  0
 28 33  2  0  0  0  0
 28 29  1  0  0  0  0
 29 30  2  0  0  0  0
 30 31  1  0  0  0  0
 31 32  2  0  0  0  0
 32 33  1  0  0  0  0
 33 34  1  0  0  0  0
 34 35  1  6  0  0  0
M  END
>  <COMPND>
    UNNAMED

>  <AUTHOR>
    GENERATED BY OPEN BABEL 2.4.90

>  <MASTER>
        0    0    0    0    0    0    0    0   35    0   35    0

