__3kmn_A_rec_5djl_gsh_lig_min.pdb
 OpenBabel10191908263D

 20 19  0  0  1  0  0  0  0  0999 V2000
   20.4160    3.8860   26.9340 C   0  0  0  0  0  0  0  0  0  0  0  0
   21.5180    3.5460   26.5050 O   0  0  0  0  0  0  0  0  0  0  0  0
   20.2870    4.8070   28.0540 N   0  0  0  0  0  0  0  0  0  0  0  0
   19.1240    3.3670   26.2910 C   0  0  0  0  0  0  0  0  0  0  0  0
   19.3380    2.7330   24.9200 C   0  0  0  0  0  0  0  0  0  0  0  0
   18.2890    1.2010   23.3700 N   0  0  0  0  0  0  0  0  0  0  0  0
   18.0320    2.0640   24.4580 C   0  0  2  0  0  0  0  0  0  0  0  0
   17.0140    3.1250   24.0220 C   0  0  0  0  0  0  0  0  0  0  0  0
   16.8270    3.3210   22.7910 O   0  0  0  0  0  0  0  0  0  0  0  0
   16.3660    3.7940   24.8670 O   0  0  0  0  0  0  0  0  0  0  0  0
   21.4400    5.3620   28.7230 C   0  0  2  0  0  0  0  0  0  0  0  0
   21.5670    4.7950   30.1270 C   0  0  0  0  0  0  0  0  0  0  0  0
   20.5730    4.5010   30.7840 O   0  0  0  0  0  0  0  0  0  0  0  0
   22.9020    4.6270   30.6870 N   0  0  0  0  0  0  0  0  0  0  0  0
   23.1090    4.1090   32.0230 C   0  0  0  0  0  0  0  0  0  0  0  0
   23.2810    2.6120   32.0030 C   0  0  0  0  0  0  0  0  0  0  0  0
   23.2580    1.9830   30.9180 O   0  0  0  0  0  0  0  0  0  0  0  0
   23.4580    1.9960   33.0830 O   0  0  0  0  0  0  0  0  0  0  0  0
   21.2850    6.8550   28.8300 C   0  0  0  0  0  0  0  0  0  0  0  0
   22.3840    7.7030   27.7220 S   0  0  0  0  0  0  0  0  0  0  0  0
  1  2  2  0  0  0  0
  1  4  1  0  0  0  0
  1  3  1  0  0  0  0
  3 11  1  0  0  0  0
  4  5  1  0  0  0  0
  5  7  1  0  0  0  0
  7  6  1  6  0  0  0
  7  8  1  0  0  0  0
  8  9  2  0  0  0  0
  8 10  1  0  0  0  0
 11 19  1  1  0  0  0
 11 12  1  0  0  0  0
 12 14  1  0  0  0  0
 12 13  2  0  0  0  0
 14 15  1  0  0  0  0
 15 16  1  0  0  0  0
 16 17  2  0  0  0  0
 16 18  1  0  0  0  0
 19 20  1  0  0  0  0
M  END
>  <COMPND>
    UNNAMED

>  <AUTHOR>
    GENERATED BY OPEN BABEL 2.4.90

>  <MASTER>
        0    0    0    0    0    0    0    0   20    0   20    0

