__3pgt_A_rec_3ie3_gsh_lig_min.pdb
 OpenBabel10191907053D

 20 19  0  0  1  0  0  0  0  0999 V2000
   20.5340    4.1020   27.2850 C   0  0  0  0  0  0  0  0  0  0  0  0
   21.6480    4.2680   26.5260 O   0  0  0  0  0  0  0  0  0  0  0  0
   20.5260    4.3070   28.5690 N   0  0  0  0  0  0  0  0  0  0  0  0
   19.2250    3.6310   26.6880 C   0  0  0  0  0  0  0  0  0  0  0  0
   19.3740    3.0580   25.2840 C   0  0  0  0  0  0  0  0  0  0  0  0
   18.3810    1.5420   23.5840 N   0  0  0  0  0  0  0  0  0  0  0  0
   18.1390    2.3890   24.7040 C   0  0  2  0  0  0  0  0  0  0  0  0
   17.0000    3.3510   24.4700 C   0  0  0  0  0  0  0  0  0  0  0  0
   16.3710    3.8030   25.3660 O   0  0  0  0  0  0  0  0  0  0  0  0
   16.7110    3.6280   23.3440 O   0  0  0  0  0  0  0  0  0  0  0  0
   21.5870    4.9440   29.2750 C   0  0  2  0  0  0  0  0  0  0  0  0
   21.6580    4.4150   30.6790 C   0  0  0  0  0  0  0  0  0  0  0  0
   20.5260    4.3830   31.4040 O   0  0  0  0  0  0  0  0  0  0  0  0
   22.8310    4.0600   31.1220 N   0  0  0  0  0  0  0  0  0  0  0  0
   22.9210    3.5040   32.4680 C   0  0  0  0  0  0  0  0  0  0  0  0
   23.3590    2.0710   32.6620 C   0  0  0  0  0  0  0  0  0  0  0  0
   23.5800    1.7230   33.7920 O   0  0  0  0  0  0  0  0  0  0  0  0
   23.5310    1.3380   31.7130 O   0  0  0  0  0  0  0  0  0  0  0  0
   21.4190    6.4470   29.2900 C   0  0  0  0  0  0  0  0  0  0  0  0
   22.6430    7.3480   28.2950 S   0  0  0  0  0  0  0  0  0  0  0  0
  1  2  2  0  0  0  0
  1  4  1  0  0  0  0
  1  3  1  0  0  0  0
  3 11  1  0  0  0  0
  4  5  1  0  0  0  0
  5  7  1  0  0  0  0
  7  6  1  6  0  0  0
  7  8  1  0  0  0  0
  8 10  2  0  0  0  0
  8  9  1  0  0  0  0
 11 19  1  1  0  0  0
 11 12  1  0  0  0  0
 12 14  1  0  0  0  0
 12 13  2  0  0  0  0
 14 15  1  0  0  0  0
 15 16  1  0  0  0  0
 16 18  2  0  0  0  0
 16 17  1  0  0  0  0
 19 20  1  0  0  0  0
M  END
>  <COMPND>
    UNNAMED

>  <AUTHOR>
    GENERATED BY OPEN BABEL 2.4.90

>  <MASTER>
        0    0    0    0    0    0    0    0   20    0   20    0

