__4gss_A_rec_2pgt_gpr_lig_min.pdb
 OpenBabel10191906253D

 35 37  0  0  1  0  0  0  0  0999 V2000
   21.8310    5.2920   29.1610 C   0  0  2  0  0  0  0  0  0  0  0  0
   20.6560    4.0850   27.3490 C   0  0  0  0  0  0  0  0  0  0  0  0
   21.6530    3.4030   26.9810 O   0  0  0  0  0  0  0  0  0  0  0  0
   20.6320    4.9690   28.3490 N   0  0  0  0  0  0  0  0  0  0  0  0
   19.4080    3.8310   26.6100 C   0  0  0  0  0  0  0  0  0  0  0  0
   19.5500    3.1100   25.3150 C   0  0  0  0  0  0  0  0  0  0  0  0
   18.4780    1.3300   23.8850 N   0  0  0  0  0  0  0  0  0  0  0  0
   18.2240    2.4000   24.9550 C   0  0  2  0  0  0  0  0  0  0  0  0
   17.1820    3.4150   24.5240 C   0  0  0  0  0  0  0  0  0  0  0  0
   16.3460    3.9780   25.2790 O   0  0  0  0  0  0  0  0  0  0  0  0
   17.0340    3.5270   23.1810 O   0  0  0  0  0  0  0  0  0  0  0  0
   21.6420    4.6000   30.5550 C   0  0  0  0  0  0  0  0  0  0  0  0
   20.5480    4.6610   31.0680 O   0  0  0  0  0  0  0  0  0  0  0  0
   22.6560    4.0220   31.0820 N   0  0  0  0  0  0  0  0  0  0  0  0
   22.5580    3.5870   32.4980 C   0  0  0  0  0  0  0  0  0  0  0  0
   23.5420    2.5170   32.7670 C   0  0  0  0  0  0  0  0  0  0  0  0
   24.1950    2.3290   33.8180 O   0  0  0  0  0  0  0  0  0  0  0  0
   23.8220    1.6550   31.7830 O   0  0  0  0  0  0  0  0  0  0  0  0
   22.0040    6.8230   29.3800 C   0  0  0  0  0  0  0  0  0  0  0  0
   21.4390    7.7850   27.9980 S   0  0  0  0  0  0  0  0  0  0  0  0
   22.8960    8.5880   27.8780 C   0  0  2  0  0  0  0  0  0  0  0  0
   24.1810    7.8420   27.8940 C   0  0  0  0  0  0  0  0  0  0  0  0
   24.5770    7.1000   26.7370 C   0  0  0  0  0  0  0  0  0  0  0  0
   25.7600    6.4070   26.7400 C   0  0  0  0  0  0  0  0  0  0  0  0
   26.5950    6.4660   27.8780 C   0  0  0  0  0  0  0  0  0  0  0  0
   26.2640    7.2200   29.0140 C   0  0  0  0  0  0  0  0  0  0  0  0
   25.0150    7.8640   29.0490 C   0  0  0  0  0  0  0  0  0  0  0  0
   24.5930    8.7140   30.2200 C   0  0  0  0  0  0  0  0  0  0  0  0
   25.1640    8.5270   31.5170 C   0  0  0  0  0  0  0  0  0  0  0  0
   24.7750    9.3920   32.5490 C   0  0  0  0  0  0  0  0  0  0  0  0
   23.8360   10.3980   32.3340 C   0  0  0  0  0  0  0  0  0  0  0  0
   23.2450   10.5480   31.0740 C   0  0  0  0  0  0  0  0  0  0  0  0
   23.6340    9.6900   30.0490 C   0  0  0  0  0  0  0  0  0  0  0  0
   22.9560    9.8880   28.6870 C   0  0  1  0  0  0  0  0  0  0  0  0
   23.9300   10.7780   28.0420 O   0  0  0  0  0  0  0  0  0  0  0  0
  1  4  1  0  0  0  0
  1 19  1  1  0  0  0
  1 12  1  0  0  0  0
  2  3  2  0  0  0  0
  2  5  1  0  0  0  0
  2  4  1  0  0  0  0
  5  6  1  0  0  0  0
  6  8  1  0  0  0  0
  8  7  1  6  0  0  0
  8  9  1  0  0  0  0
  9 11  2  0  0  0  0
  9 10  1  0  0  0  0
 12 14  1  0  0  0  0
 12 13  2  0  0  0  0
 14 15  1  0  0  0  0
 15 16  1  0  0  0  0
 16 18  2  0  0  0  0
 16 17  1  0  0  0  0
 19 20  1  0  0  0  0
 21 20  1  1  0  0  0
 21 22  1  0  0  0  0
 21 34  1  0  0  0  0
 22 23  2  0  0  0  0
 22 27  1  0  0  0  0
 23 24  1  0  0  0  0
 24 25  2  0  0  0  0
 25 26  1  0  0  0  0
 26 27  2  0  0  0  0
 27 28  1  0  0  0  0
 28 33  2  0  0  0  0
 28 29  1  0  0  0  0
 29 30  2  0  0  0  0
 30 31  1  0  0  0  0
 31 32  2  0  0  0  0
 32 33  1  0  0  0  0
 33 34  1  0  0  0  0
 34 35  1  6  0  0  0
M  END
>  <COMPND>
    UNNAMED

>  <AUTHOR>
    GENERATED BY OPEN BABEL 2.4.90

>  <MASTER>
        0    0    0    0    0    0    0    0   35    0   35    0

