__4gss_A_rec_3csi_lz6_lig_min.pdb
 OpenBabel10191907373D

 38 38  0  0  1  0  0  0  0  0999 V2000
   21.7120    4.8900   29.0410 C   0  0  1  0  0  0  0  0  0  0  0  0
   21.5540    4.6320   30.5260 C   0  0  0  0  0  0  0  0  0  0  0  0
   20.4430    4.6420   31.0390 O   0  0  0  0  0  0  0  0  0  0  0  0
   22.6890    4.3650   31.1930 N   0  0  0  0  0  0  0  0  0  0  0  0
   22.7670    3.7190   32.5040 C   0  0  0  0  0  0  0  0  0  0  0  0
   23.4320    2.3520   32.5670 C   0  0  0  0  0  0  0  0  0  0  0  0
   23.4050    1.7300   33.6610 O   0  0  0  0  0  0  0  0  0  0  0  0
   23.9860    1.8550   31.5610 O   0  0  0  0  0  0  0  0  0  0  0  0
   20.5900    4.0160   27.0620 C   0  0  0  0  0  0  0  0  0  0  0  0
   21.6290    3.9230   26.4010 O   0  0  0  0  0  0  0  0  0  0  0  0
   20.5170    4.6110   28.2550 N   0  0  0  0  0  0  0  0  0  0  0  0
   19.2980    3.4250   26.5440 C   0  0  0  0  0  0  0  0  0  0  0  0
   19.4080    2.9630   25.0810 C   0  0  0  0  0  0  0  0  0  0  0  0
   18.1020    2.2930   24.6230 C   0  0  2  0  0  0  0  0  0  0  0  0
   18.4060    1.4130   23.4820 N   0  0  0  0  0  0  0  0  0  0  0  0
   16.3840    3.9860   25.0970 O   0  0  0  0  0  0  0  0  0  0  0  0
   17.0700    3.3290   24.2230 C   0  0  0  0  0  0  0  0  0  0  0  0
   16.9290    3.4720   22.9850 O   0  0  0  0  0  0  0  0  0  0  0  0
   22.3340    6.2530   28.7150 C   0  0  0  0  0  0  0  0  0  0  0  0
   21.4490    7.6380   29.3520 S   0  0  0  0  0  0  0  0  0  0  0  0
   22.4360    9.1050   29.3290 C   0  0  0  0  0  0  0  0  0  0  0  0
   23.9190    8.7660   29.4550 C   0  0  0  0  0  0  0  0  0  0  0  0
   24.2440    8.5420   30.8680 N   0  0  0  0  0  0  0  0  0  0  0  0
   24.1780    9.6050   31.7930 C   0  0  0  0  0  0  0  0  0  0  0  0
   24.4160    9.3670   33.1440 C   0  0  0  0  0  0  0  0  0  0  0  0
   24.3460   10.4130   34.0640 C   0  0  0  0  0  0  0  0  0  0  0  0
   24.0450   11.7060   33.6610 C   0  0  0  0  0  0  0  0  0  0  0  0
   23.8100   11.9450   32.3140 C   0  0  0  0  0  0  0  0  0  0  0  0
   23.8780   10.9080   31.3880 C   0  0  0  0  0  0  0  0  0  0  0  0
   23.9910   12.8300   34.6760 C   0  0  0  0  0  0  0  0  0  0  0  0
   25.0880   13.8570   34.3850 C   0  0  0  0  0  0  0  0  0  0  0  0
   25.9510   14.2000   35.6050 C   0  0  0  0  0  0  0  0  0  0  0  0
   25.1060   14.8090   36.7140 C   0  0  0  0  0  0  0  0  0  0  0  0
   25.0120   14.2050   37.8220 O   0  0  0  0  0  0  0  0  0  0  0  0
   24.5220   15.9030   36.4800 O   0  0  0  0  0  0  0  0  0  0  0  0
   24.6540    7.2130   31.3370 C   0  0  0  0  0  0  0  0  0  0  0  0
   25.6730    6.6210   30.3480 C   0  0  0  0  0  0  0  0  0  0  0  0
   26.1470    4.9390   30.8080 Cl  0  0  0  0  0  0  0  0  0  0  0  0
  1 11  1  0  0  0  0
  1 19  1  1  0  0  0
  1  2  1  0  0  0  0
  2  3  2  0  0  0  0
  2  4  1  0  0  0  0
  4  5  1  0  0  0  0
  5  6  1  0  0  0  0
  6  8  2  0  0  0  0
  6  7  1  0  0  0  0
  9 10  2  0  0  0  0
  9 12  1  0  0  0  0
  9 11  1  0  0  0  0
 12 13  1  0  0  0  0
 13 14  1  0  0  0  0
 14 15  1  6  0  0  0
 14 17  1  0  0  0  0
 16 17  2  0  0  0  0
 17 18  1  0  0  0  0
 19 20  1  0  0  0  0
 20 21  1  0  0  0  0
 21 22  1  0  0  0  0
 22 23  1  0  0  0  0
 23 36  1  0  0  0  0
 23 24  1  0  0  0  0
 24 29  2  0  0  0  0
 24 25  1  0  0  0  0
 25 26  2  0  0  0  0
 26 27  1  0  0  0  0
 27 28  2  0  0  0  0
 27 30  1  0  0  0  0
 28 29  1  0  0  0  0
 30 31  1  0  0  0  0
 31 32  1  0  0  0  0
 32 33  1  0  0  0  0
 33 35  2  0  0  0  0
 33 34  1  0  0  0  0
 36 37  1  0  0  0  0
 37 38  1  0  0  0  0
M  END
>  <COMPND>
    UNNAMED

>  <AUTHOR>
    GENERATED BY OPEN BABEL 2.4.90

>  <MASTER>
        0    0    0    0    0    0    0    0   38    0   38    0

