__4gss_A_rec_1lbk_gsh_lig_min.pdb
 OpenBabel10191908533D

 20 19  0  0  1  0  0  0  0  0999 V2000
   20.3890    4.2670   27.2330 C   0  0  0  0  0  0  0  0  0  0  0  0
   21.2110    4.7960   26.4610 O   0  0  0  0  0  0  0  0  0  0  0  0
   20.4110    4.4400   28.5560 N   0  0  0  0  0  0  0  0  0  0  0  0
   19.2800    3.3540   26.7300 C   0  0  0  0  0  0  0  0  0  0  0  0
   19.3640    3.0310   25.2340 C   0  0  0  0  0  0  0  0  0  0  0  0
   18.5080    1.4340   23.5650 N   0  0  0  0  0  0  0  0  0  0  0  0
   18.1240    2.3200   24.6950 C   0  0  2  0  0  0  0  0  0  0  0  0
   17.0850    3.3420   24.2200 C   0  0  0  0  0  0  0  0  0  0  0  0
   16.4450    3.9810   25.0810 O   0  0  0  0  0  0  0  0  0  0  0  0
   16.9190    3.4990   22.9930 O   0  0  0  0  0  0  0  0  0  0  0  0
   21.4040    5.2630   29.2440 C   0  0  2  0  0  0  0  0  0  0  0  0
   21.5470    4.7770   30.6870 C   0  0  0  0  0  0  0  0  0  0  0  0
   20.5440    4.4910   31.3550 O   0  0  0  0  0  0  0  0  0  0  0  0
   22.7990    4.6890   31.1450 N   0  0  0  0  0  0  0  0  0  0  0  0
   23.0880    4.2420   32.5020 C   0  0  0  0  0  0  0  0  0  0  0  0
   23.5810    2.8210   32.6300 C   0  0  0  0  0  0  0  0  0  0  0  0
   23.8390    2.3890   33.7760 O   0  0  0  0  0  0  0  0  0  0  0  0
   23.7100    2.1390   31.5880 O   0  0  0  0  0  0  0  0  0  0  0  0
   20.9790    6.7420   29.2530 C   0  0  0  0  0  0  0  0  0  0  0  0
   22.1330    7.8130   28.3140 S   0  0  0  0  0  0  0  0  0  0  0  0
  1  2  2  0  0  0  0
  1  4  1  0  0  0  0
  1  3  1  0  0  0  0
  3 11  1  0  0  0  0
  4  5  1  0  0  0  0
  5  7  1  0  0  0  0
  7  6  1  6  0  0  0
  7  8  1  0  0  0  0
  8 10  2  0  0  0  0
  8  9  1  0  0  0  0
 11 19  1  1  0  0  0
 11 12  1  0  0  0  0
 12 14  1  0  0  0  0
 12 13  2  0  0  0  0
 14 15  1  0  0  0  0
 15 16  1  0  0  0  0
 16 18  2  0  0  0  0
 16 17  1  0  0  0  0
 19 20  1  0  0  0  0
M  END
>  <COMPND>
    UNNAMED

>  <AUTHOR>
    GENERATED BY OPEN BABEL 2.4.90

>  <MASTER>
        0    0    0    0    0    0    0    0   20    0   20    0

