__4pgt_A_rec_10gs_vww_lig_min.pdb
 OpenBabel10191909133D

 33 34  0  0  1  0  0  0  0  0999 V2000
   21.4730    5.1610   28.9570 C   0  0  2  0  0  0  0  0  0  0  0  0
   20.3690    4.1950   26.9990 C   0  0  0  0  0  0  0  0  0  0  0  0
   21.2380    4.5880   26.2230 O   0  0  0  0  0  0  0  0  0  0  0  0
   20.4140    4.3950   28.3120 N   0  0  0  0  0  0  0  0  0  0  0  0
   19.1860    3.3970   26.5090 C   0  0  0  0  0  0  0  0  0  0  0  0
   19.2960    2.9850   25.0530 C   0  0  0  0  0  0  0  0  0  0  0  0
   18.3630    1.4300   23.3670 N   0  0  0  0  0  0  0  0  0  0  0  0
   18.0350    2.2870   24.5380 C   0  0  2  0  0  0  0  0  0  0  0  0
   16.9610    3.3240   24.1830 C   0  0  0  0  0  0  0  0  0  0  0  0
   16.3420    3.8920   25.1080 O   0  0  0  0  0  0  0  0  0  0  0  0
   16.7400    3.5420   22.9760 O   0  0  0  0  0  0  0  0  0  0  0  0
   21.7140    4.6660   30.3700 C   0  0  0  0  0  0  0  0  0  0  0  0
   20.7740    4.4010   31.1190 O   0  0  0  0  0  0  0  0  0  0  0  0
   22.9860    4.5900   30.7330 N   0  0  0  0  0  0  0  0  0  0  0  0
   23.4000    4.1820   32.0620 C   0  0  2  0  0  0  0  0  0  0  0  0
   24.5550    4.9870   32.5630 C   0  0  0  0  0  0  0  0  0  0  0  0
   25.7450    5.0540   31.8480 C   0  0  0  0  0  0  0  0  0  0  0  0
   26.7910    5.8630   32.2790 C   0  0  0  0  0  0  0  0  0  0  0  0
   26.6500    6.6150   33.4370 C   0  0  0  0  0  0  0  0  0  0  0  0
   25.4670    6.5510   34.1600 C   0  0  0  0  0  0  0  0  0  0  0  0
   24.4280    5.7400   33.7220 C   0  0  0  0  0  0  0  0  0  0  0  0
   23.5400    2.6710   32.2360 C   0  0  0  0  0  0  0  0  0  0  0  0
   23.0870    2.1740   33.2850 O   0  0  0  0  0  0  0  0  0  0  0  0
   24.0870    2.0020   31.3340 O   0  0  0  0  0  0  0  0  0  0  0  0
   21.0730    6.6330   29.0530 C   0  0  0  0  0  0  0  0  0  0  0  0
   21.9010    7.7380   27.9210 S   0  0  0  0  0  0  0  0  0  0  0  0
   23.5420    7.7950   28.6700 C   0  0  0  0  0  0  0  0  0  0  0  0
   23.6480    8.7520   29.8290 C   0  0  0  0  0  0  0  0  0  0  0  0
   24.1530    8.3220   31.0530 C   0  0  0  0  0  0  0  0  0  0  0  0
   23.2440   10.0790   29.6980 C   0  0  0  0  0  0  0  0  0  0  0  0
   24.2550    9.1960   32.1300 C   0  0  0  0  0  0  0  0  0  0  0  0
   23.3420   10.9630   30.7730 C   0  0  0  0  0  0  0  0  0  0  0  0
   23.8480   10.5220   31.9890 C   0  0  0  0  0  0  0  0  0  0  0  0
  1  4  1  0  0  0  0
  1 25  1  1  0  0  0
  1 12  1  0  0  0  0
  2  3  2  0  0  0  0
  2  5  1  0  0  0  0
  2  4  1  0  0  0  0
  5  6  1  0  0  0  0
  6  8  1  0  0  0  0
  8  7  1  6  0  0  0
  8  9  1  0  0  0  0
  9 11  2  0  0  0  0
  9 10  1  0  0  0  0
 12 14  1  0  0  0  0
 12 13  2  0  0  0  0
 15 14  1  6  0  0  0
 15 22  1  0  0  0  0
 15 16  1  0  0  0  0
 16 17  2  0  0  0  0
 16 21  1  0  0  0  0
 17 18  1  0  0  0  0
 18 19  2  0  0  0  0
 19 20  1  0  0  0  0
 20 21  2  0  0  0  0
 22 24  2  0  0  0  0
 22 23  1  0  0  0  0
 25 26  1  0  0  0  0
 26 27  1  0  0  0  0
 27 28  1  0  0  0  0
 28 30  2  0  0  0  0
 28 29  1  0  0  0  0
 29 31  2  0  0  0  0
 30 32  1  0  0  0  0
 31 33  1  0  0  0  0
 32 33  2  0  0  0  0
M  END
>  <COMPND>
    UNNAMED

>  <AUTHOR>
    GENERATED BY OPEN BABEL 2.4.90

>  <MASTER>
        0    0    0    0    0    0    0    0   33    0   33    0

