__4pgt_A_rec_1aqv_0hg_lig_min.pdb
 OpenBabel10191906323D

 28 28  0  0  1  0  0  0  0  0999 V2000
   21.7090    5.0820   29.0280 C   0  0  2  0  0  0  0  0  0  0  0  0
   20.5320    4.0720   27.1360 C   0  0  0  0  0  0  0  0  0  0  0  0
   21.5840    3.8820   26.4970 O   0  0  0  0  0  0  0  0  0  0  0  0
   20.4970    4.6280   28.3440 N   0  0  0  0  0  0  0  0  0  0  0  0
   19.2040    3.6690   26.5650 C   0  0  0  0  0  0  0  0  0  0  0  0
   19.3450    3.0170   25.2050 C   0  0  0  0  0  0  0  0  0  0  0  0
   18.3850    1.4250   23.5690 N   0  0  0  0  0  0  0  0  0  0  0  0
   18.0790    2.3010   24.7430 C   0  0  2  0  0  0  0  0  0  0  0  0
   17.0310    3.3280   24.3050 C   0  0  0  0  0  0  0  0  0  0  0  0
   16.3280    3.9030   25.1720 O   0  0  0  0  0  0  0  0  0  0  0  0
   16.8880    3.4760   23.0680 O   0  0  0  0  0  0  0  0  0  0  0  0
   21.7300    4.5390   30.4560 C   0  0  0  0  0  0  0  0  0  0  0  0
   20.6880    4.4090   31.0900 O   0  0  0  0  0  0  0  0  0  0  0  0
   22.9250    4.4400   31.0130 N   0  0  0  0  0  0  0  0  0  0  0  0
   23.0510    3.9480   32.3650 C   0  0  0  0  0  0  0  0  0  0  0  0
   23.4510    2.4940   32.4490 C   0  0  0  0  0  0  0  0  0  0  0  0
   23.9640    1.9330   31.4490 O   0  0  0  0  0  0  0  0  0  0  0  0
   23.2730    1.9240   33.5370 O   0  0  0  0  0  0  0  0  0  0  0  0
   21.6350    6.6460   29.2620 C   0  0  0  0  0  0  0  0  0  0  0  0
   21.8960    7.6400   27.7610 S   0  0  0  0  0  0  0  0  0  0  0  0
   23.6010    8.1010   27.9690 C   0  0  0  0  0  0  0  0  0  0  0  0
   24.1870   11.3330   33.1590 Br  0  0  0  0  0  0  0  0  0  0  0  0
   23.7670    8.8250   29.1660 C   0  0  0  0  0  0  0  0  0  0  0  0
   24.6930    8.4340   30.1410 C   0  0  0  0  0  0  0  0  0  0  0  0
   24.8340    9.1680   31.3320 C   0  0  0  0  0  0  0  0  0  0  0  0
   24.0490   10.3070   31.5690 C   0  0  0  0  0  0  0  0  0  0  0  0
   23.1310   10.6920   30.5910 C   0  0  0  0  0  0  0  0  0  0  0  0
   22.9870    9.9640   29.4070 C   0  0  0  0  0  0  0  0  0  0  0  0
  1  4  1  0  0  0  0
  1 19  1  1  0  0  0
  1 12  1  0  0  0  0
  2  3  2  0  0  0  0
  2  5  1  0  0  0  0
  2  4  1  0  0  0  0
  5  6  1  0  0  0  0
  6  8  1  0  0  0  0
  8  7  1  6  0  0  0
  8  9  1  0  0  0  0
  9 11  2  0  0  0  0
  9 10  1  0  0  0  0
 12 14  1  0  0  0  0
 12 13  2  0  0  0  0
 14 15  1  0  0  0  0
 15 16  1  0  0  0  0
 16 17  2  0  0  0  0
 16 18  1  0  0  0  0
 19 20  1  0  0  0  0
 20 21  1  0  0  0  0
 21 23  1  0  0  0  0
 22 26  1  0  0  0  0
 23 28  2  0  0  0  0
 23 24  1  0  0  0  0
 24 25  2  0  0  0  0
 25 26  1  0  0  0  0
 26 27  2  0  0  0  0
 27 28  1  0  0  0  0
M  END
>  <COMPND>
    UNNAMED

>  <AUTHOR>
    GENERATED BY OPEN BABEL 2.4.90

>  <MASTER>
        0    0    0    0    0    0    0    0   28    0   28    0

