__4pgt_A_rec_1aqv_0hg_lig_docked.pdb
 OpenBabel10191909583D

 28 28  0  0  1  0  0  0  0  0999 V2000
   21.6060    5.0460   28.8490 C   0  0  2  0  0  0  0  0  0  0  0  0
   20.8960    4.1810   26.6740 C   0  0  0  0  0  0  0  0  0  0  0  0
   21.7470    4.8480   26.0570 O   0  0  0  0  0  0  0  0  0  0  0  0
   20.7610    4.2080   27.9970 N   0  0  0  0  0  0  0  0  0  0  0  0
   19.9480    3.2790   25.9400 C   0  0  0  0  0  0  0  0  0  0  0  0
   18.6260    3.1330   26.6640 C   0  0  0  0  0  0  0  0  0  0  0  0
   18.1660    1.5220   24.8400 N   0  0  0  0  0  0  0  0  0  0  0  0
   17.5440    2.4650   25.8210 C   0  0  2  0  0  0  0  0  0  0  0  0
   16.7720    3.5260   25.0310 C   0  0  0  0  0  0  0  0  0  0  0  0
   16.3090    4.5290   25.6300 O   0  0  0  0  0  0  0  0  0  0  0  0
   16.5820    3.2790   23.8170 O   0  0  0  0  0  0  0  0  0  0  0  0
   21.5670    4.5270   30.2860 C   0  0  0  0  0  0  0  0  0  0  0  0
   20.5050    4.4580   30.8960 O   0  0  0  0  0  0  0  0  0  0  0  0
   22.7420    4.3800   30.8730 N   0  0  0  0  0  0  0  0  0  0  0  0
   22.8110    3.9050   32.2360 C   0  0  0  0  0  0  0  0  0  0  0  0
   23.2230    2.4570   32.3550 C   0  0  0  0  0  0  0  0  0  0  0  0
   24.1100    1.9980   31.5910 O   0  0  0  0  0  0  0  0  0  0  0  0
   22.6710    1.7870   33.2410 O   0  0  0  0  0  0  0  0  0  0  0  0
   20.9580    6.4840   28.9920 C   0  0  0  0  0  0  0  0  0  0  0  0
   21.9940    7.8370   28.3550 S   0  0  0  0  0  0  0  0  0  0  0  0
   23.4990    7.5460   29.2550 C   0  0  0  0  0  0  0  0  0  0  0  0
   24.2680   11.6500   33.7600 Br  0  0  0  0  0  0  0  0  0  0  0  0
   23.6540    8.5100   30.2710 C   0  0  0  0  0  0  0  0  0  0  0  0
   23.2770    9.8450   30.0810 C   0  0  0  0  0  0  0  0  0  0  0  0
   23.4500   10.7920   31.1070 C   0  0  0  0  0  0  0  0  0  0  0  0
   24.0030   10.4180   32.3410 C   0  0  0  0  0  0  0  0  0  0  0  0
   24.3720    9.0840   32.5230 C   0  0  0  0  0  0  0  0  0  0  0  0
   24.2030    8.1420   31.5060 C   0  0  0  0  0  0  0  0  0  0  0  0
  1  4  1  0  0  0  0
  1 19  1  1  0  0  0
  1 12  1  0  0  0  0
  2  3  2  0  0  0  0
  2  5  1  0  0  0  0
  2  4  1  0  0  0  0
  5  6  1  0  0  0  0
  6  8  1  0  0  0  0
  8  7  1  6  0  0  0
  8  9  1  0  0  0  0
  9 11  2  0  0  0  0
  9 10  1  0  0  0  0
 12 14  1  0  0  0  0
 12 13  2  0  0  0  0
 14 15  1  0  0  0  0
 15 16  1  0  0  0  0
 16 17  2  0  0  0  0
 16 18  1  0  0  0  0
 19 20  1  0  0  0  0
 20 21  1  0  0  0  0
 21 23  1  0  0  0  0
 22 26  1  0  0  0  0
 23 28  2  0  0  0  0
 23 24  1  0  0  0  0
 24 25  2  0  0  0  0
 25 26  1  0  0  0  0
 26 27  2  0  0  0  0
 27 28  1  0  0  0  0
M  END
>  <MODEL>
       1

>  <COMPND>
    UNNAMED

>  <AUTHOR>
    GENERATED BY OPEN BABEL 2.4.90

>  <MASTER>
        0    0    0    0    0    0    0    0   28    0   28    0

