__5dcg_B_rec_3ie3_gsh_lig_min.pdb
 OpenBabel10191907253D

 20 19  0  0  1  0  0  0  0  0999 V2000
   20.4350    3.8530   27.3650 C   0  0  0  0  0  0  0  0  0  0  0  0
   21.5970    3.1980   27.1060 O   0  0  0  0  0  0  0  0  0  0  0  0
   20.3410    4.7780   28.2740 N   0  0  0  0  0  0  0  0  0  0  0  0
   19.1540    3.5230   26.6290 C   0  0  0  0  0  0  0  0  0  0  0  0
   19.3870    2.9060   25.2570 C   0  0  0  0  0  0  0  0  0  0  0  0
   18.5320    1.1610   23.7090 N   0  0  0  0  0  0  0  0  0  0  0  0
   18.1990    2.1890   24.6380 C   0  0  2  0  0  0  0  0  0  0  0  0
   17.1480    3.1330   24.1080 C   0  0  0  0  0  0  0  0  0  0  0  0
   16.4300    3.7360   24.8330 O   0  0  0  0  0  0  0  0  0  0  0  0
   17.0220    3.2400   22.9250 O   0  0  0  0  0  0  0  0  0  0  0  0
   21.4640    5.3680   28.9210 C   0  0  2  0  0  0  0  0  0  0  0  0
   21.6050    4.8120   30.3100 C   0  0  0  0  0  0  0  0  0  0  0  0
   20.4860    4.4720   30.9740 O   0  0  0  0  0  0  0  0  0  0  0  0
   22.8100    4.7380   30.8010 N   0  0  0  0  0  0  0  0  0  0  0  0
   22.9770    4.1650   32.1320 C   0  0  0  0  0  0  0  0  0  0  0  0
   23.2930    2.6940   32.2830 C   0  0  0  0  0  0  0  0  0  0  0  0
   23.8010    2.3550   33.3190 O   0  0  0  0  0  0  0  0  0  0  0  0
   23.0930    1.9180   31.3750 O   0  0  0  0  0  0  0  0  0  0  0  0
   21.3480    6.8750   28.9680 C   0  0  0  0  0  0  0  0  0  0  0  0
   22.3420    7.7430   27.7210 S   0  0  0  0  0  0  0  0  0  0  0  0
  1  2  2  0  0  0  0
  1  4  1  0  0  0  0
  1  3  1  0  0  0  0
  3 11  1  0  0  0  0
  4  5  1  0  0  0  0
  5  7  1  0  0  0  0
  7  6  1  6  0  0  0
  7  8  1  0  0  0  0
  8 10  2  0  0  0  0
  8  9  1  0  0  0  0
 11 19  1  1  0  0  0
 11 12  1  0  0  0  0
 12 14  1  0  0  0  0
 12 13  2  0  0  0  0
 14 15  1  0  0  0  0
 15 16  1  0  0  0  0
 16 18  2  0  0  0  0
 16 17  1  0  0  0  0
 19 20  1  0  0  0  0
M  END
>  <COMPND>
    UNNAMED

>  <AUTHOR>
    GENERATED BY OPEN BABEL 2.4.90

>  <MASTER>
        0    0    0    0    0    0    0    0   20    0   20    0

