__5dcg_B_rec_19gs_gsh_lig_min.pdb
 OpenBabel10191908553D

 20 19  0  0  1  0  0  0  0  0999 V2000
   20.4890    3.9310   27.4130 C   0  0  0  0  0  0  0  0  0  0  0  0
   21.5000    3.2690   27.1610 O   0  0  0  0  0  0  0  0  0  0  0  0
   20.4850    4.9770   28.2330 N   0  0  0  0  0  0  0  0  0  0  0  0
   19.1480    3.6030   26.7870 C   0  0  0  0  0  0  0  0  0  0  0  0
   19.2670    2.9780   25.4190 C   0  0  0  0  0  0  0  0  0  0  0  0
   18.3110    1.3740   23.8040 N   0  0  0  0  0  0  0  0  0  0  0  0
   18.0070    2.2470   24.9760 C   0  0  2  0  0  0  0  0  0  0  0  0
   16.9410    3.2730   24.6140 C   0  0  0  0  0  0  0  0  0  0  0  0
   16.3200    3.8610   25.5270 O   0  0  0  0  0  0  0  0  0  0  0  0
   16.7440    3.4770   23.4010 O   0  0  0  0  0  0  0  0  0  0  0  0
   21.6760    5.4310   28.9310 C   0  0  2  0  0  0  0  0  0  0  0  0
   21.6780    4.8470   30.3390 C   0  0  0  0  0  0  0  0  0  0  0  0
   20.6290    4.4950   30.8720 O   0  0  0  0  0  0  0  0  0  0  0  0
   22.8640    4.7340   30.9300 N   0  0  0  0  0  0  0  0  0  0  0  0
   22.9800    4.1990   32.2730 C   0  0  0  0  0  0  0  0  0  0  0  0
   23.4640    2.7650   32.2800 C   0  0  0  0  0  0  0  0  0  0  0  0
   23.9100    2.2880   33.3480 O   0  0  0  0  0  0  0  0  0  0  0  0
   23.3960    2.1170   31.2130 O   0  0  0  0  0  0  0  0  0  0  0  0
   21.6850    6.9600   28.9910 C   0  0  0  0  0  0  0  0  0  0  0  0
   22.4840    7.7650   27.5660 S   0  0  0  0  0  0  0  0  0  0  0  0
  1  2  2  0  0  0  0
  1  4  1  0  0  0  0
  1  3  1  0  0  0  0
  3 11  1  0  0  0  0
  4  5  1  0  0  0  0
  5  7  1  0  0  0  0
  7  6  1  6  0  0  0
  7  8  1  0  0  0  0
  8 10  2  0  0  0  0
  8  9  1  0  0  0  0
 11 19  1  1  0  0  0
 11 12  1  0  0  0  0
 12 14  1  0  0  0  0
 12 13  2  0  0  0  0
 14 15  1  0  0  0  0
 15 16  1  0  0  0  0
 16 18  2  0  0  0  0
 16 17  1  0  0  0  0
 19 20  1  0  0  0  0
M  END
>  <COMPND>
    UNNAMED

>  <AUTHOR>
    GENERATED BY OPEN BABEL 2.4.90

>  <MASTER>
        0    0    0    0    0    0    0    0   20    0   20    0

