__5ddl_A_rec_20gs_cbd_lig_docked.pdb
 OpenBabel10191911463D

 22 24  0  0  0  0  0  0  0  0999 V2000
   23.2560    4.5050   26.1950 C   0  0  0  0  0  0  0  0  0  0  0  0
   22.4770    5.5420   26.7240 C   0  0  0  0  0  0  0  0  0  0  0  0
   20.9850    5.5830   26.3490 N   0  0  0  0  0  0  0  0  0  0  0  0
   23.0910    6.4860   27.5770 C   0  0  0  0  0  0  0  0  0  0  0  0
   22.3350    7.5920   28.1820 C   0  0  0  0  0  0  0  0  0  0  0  0
   21.1040    7.6520   27.8870 O   0  0  0  0  0  0  0  0  0  0  0  0
   22.8940    8.6130   29.0880 C   0  0  0  0  0  0  0  0  0  0  0  0
   22.1140    9.6810   29.6530 C   0  0  0  0  0  0  0  0  0  0  0  0
   22.7370   10.6100   30.5170 C   0  0  0  0  0  0  0  0  0  0  0  0
   24.1070   10.5130   30.8290 C   0  0  0  0  0  0  0  0  0  0  0  0
   24.9000    9.4670   30.2820 C   0  0  0  0  0  0  0  0  0  0  0  0
   24.3000    8.5130   29.4100 C   0  0  0  0  0  0  0  0  0  0  0  0
   25.0510    7.4090   28.8080 C   0  0  0  0  0  0  0  0  0  0  0  0
   26.2680    7.3210   29.0950 O   0  0  0  0  0  0  0  0  0  0  0  0
   24.5150    6.3640   27.8830 C   0  0  0  0  0  0  0  0  0  0  0  0
   25.2840    5.2760   27.3000 C   0  0  0  0  0  0  0  0  0  0  0  0
   24.6480    4.3340   26.4460 C   0  0  0  0  0  0  0  0  0  0  0  0
   26.7230    5.0920   27.5600 N   0  0  0  0  0  0  0  0  0  0  0  0
   22.4540    3.3320   25.1800 S   0  0  0  0  0  0  0  0  0  0  0  0
   21.6880    4.0250   24.0570 O   0  0  0  0  0  0  0  0  0  0  0  0
   21.5410    2.6990   26.1980 O   0  0  0  0  0  0  0  0  0  0  0  0
   23.6310    2.5720   24.5380 O   0  0  0  0  0  0  0  0  0  0  0  0
  1 19  1  0  0  0  0
  1  2  2  0  0  0  0
  1 17  1  0  0  0  0
  2  3  1  0  0  0  0
  2  4  1  0  0  0  0
  4 15  2  0  0  0  0
  4  5  1  0  0  0  0
  5  6  2  0  0  0  0
  5  7  1  0  0  0  0
  7  8  2  0  0  0  0
  7 12  1  0  0  0  0
  8  9  1  0  0  0  0
  9 10  2  0  0  0  0
 10 11  1  0  0  0  0
 11 12  2  0  0  0  0
 12 13  1  0  0  0  0
 13 15  1  0  0  0  0
 13 14  2  0  0  0  0
 15 16  1  0  0  0  0
 16 17  2  0  0  0  0
 16 18  1  0  0  0  0
 19 20  1  0  0  0  0
 19 22  1  0  0  0  0
 19 21  1  0  0  0  0
M  END
>  <MODEL>
      11

>  <COMPND>
    UNNAMED

>  <AUTHOR>
    GENERATED BY OPEN BABEL 2.4.90

>  <MASTER>
        0    0    0    0    0    0    0    0   22    0   22    0

