__5ddl_A_rec_3kmo_gsh_lig_docked.pdb
 OpenBabel10191911473D

 20 19  0  0  1  0  0  0  0  0999 V2000
   20.6990    3.9550   27.3320 C   0  0  0  0  0  0  0  0  0  0  0  0
   21.9660    3.4590   26.8780 O   0  0  0  0  0  0  0  0  0  0  0  0
   20.5010    4.6280   28.4810 N   0  0  0  0  0  0  0  0  0  0  0  0
   19.4290    3.8230   26.5000 C   0  0  0  0  0  0  0  0  0  0  0  0
   19.5280    2.7680   25.4050 C   0  0  0  0  0  0  0  0  0  0  0  0
   18.0490    0.9310   26.0390 N   0  0  0  0  0  0  0  0  0  0  0  0
   18.1950    2.0790   25.1610 C   0  0  1  0  0  0  0  0  0  0  0  0
   17.0290    3.0530   25.1980 C   0  0  0  0  0  0  0  0  0  0  0  0
   16.7440    3.6590   24.1410 O   0  0  0  0  0  0  0  0  0  0  0  0
   16.3410    3.3280   26.2360 O   0  0  0  0  0  0  0  0  0  0  0  0
   21.5660    5.3180   29.1690 C   0  0  2  0  0  0  0  0  0  0  0  0
   21.7860    4.6140   30.5000 C   0  0  0  0  0  0  0  0  0  0  0  0
   20.6720    4.4140   31.3340 O   0  0  0  0  0  0  0  0  0  0  0  0
   23.0400    4.2210   30.8120 N   0  0  0  0  0  0  0  0  0  0  0  0
   23.4920    3.9020   32.1400 C   0  0  0  0  0  0  0  0  0  0  0  0
   23.5070    2.4020   32.3700 C   0  0  0  0  0  0  0  0  0  0  0  0
   24.1050    1.5920   31.5910 O   0  0  0  0  0  0  0  0  0  0  0  0
   22.8830    1.9470   33.3560 O   0  0  0  0  0  0  0  0  0  0  0  0
   21.2630    6.8190   29.3650 C   0  0  0  0  0  0  0  0  0  0  0  0
   22.7490    7.8610   29.5460 S   0  0  0  0  0  0  0  0  0  0  0  0
  1  2  2  0  0  0  0
  1  4  1  0  0  0  0
  1  3  1  0  0  0  0
  3 11  1  0  0  0  0
  4  5  1  0  0  0  0
  5  7  1  0  0  0  0
  7  6  1  1  0  0  0
  7  8  1  0  0  0  0
  8  9  2  0  0  0  0
  8 10  1  0  0  0  0
 11 19  1  1  0  0  0
 11 12  1  0  0  0  0
 12 14  1  0  0  0  0
 12 13  2  0  0  0  0
 14 15  1  0  0  0  0
 15 16  1  0  0  0  0
 16 17  2  0  0  0  0
 16 18  1  0  0  0  0
 19 20  1  0  0  0  0
M  END
>  <MODEL>
       6

>  <COMPND>
    UNNAMED

>  <AUTHOR>
    GENERATED BY OPEN BABEL 2.4.90

>  <MASTER>
        0    0    0    0    0    0    0    0   20    0   20    0

