__5jcw_B_rec_2j9h_gtx_lig_docked.pdb
 OpenBabel10191910343D

 26 25  0  0  1  0  0  0  0  0999 V2000
   21.3080    5.2910   29.0620 C   0  0  2  0  0  0  0  0  0  0  0  0
   20.2990    4.1560   27.0880 C   0  0  0  0  0  0  0  0  0  0  0  0
   21.2890    4.5830   26.1680 O   0  0  0  0  0  0  0  0  0  0  0  0
   20.3220    4.4350   28.4020 N   0  0  0  0  0  0  0  0  0  0  0  0
   19.1410    3.3290   26.5720 C   0  0  0  0  0  0  0  0  0  0  0  0
   19.4460    2.9320   25.1250 C   0  0  0  0  0  0  0  0  0  0  0  0
   18.7790    1.6680   23.1480 N   0  0  0  0  0  0  0  0  0  0  0  0
   18.3360    2.1270   24.4540 C   0  0  2  0  0  0  0  0  0  0  0  0
   17.0850    2.9700   24.3440 C   0  0  0  0  0  0  0  0  0  0  0  0
   16.8880    3.7110   23.3520 O   0  0  0  0  0  0  0  0  0  0  0  0
   16.2270    2.9500   25.2580 O   0  0  0  0  0  0  0  0  0  0  0  0
   21.5560    4.8780   30.4980 C   0  0  0  0  0  0  0  0  0  0  0  0
   20.4840    4.3960   31.2630 O   0  0  0  0  0  0  0  0  0  0  0  0
   22.8030    4.9710   30.9880 N   0  0  0  0  0  0  0  0  0  0  0  0
   23.2630    4.3220   32.2040 C   0  0  0  0  0  0  0  0  0  0  0  0
   23.4150    2.8160   32.0880 C   0  0  0  0  0  0  0  0  0  0  0  0
   24.1050    2.3100   31.1700 O   0  0  0  0  0  0  0  0  0  0  0  0
   22.8620    2.0300   32.9040 O   0  0  0  0  0  0  0  0  0  0  0  0
   20.8920    6.7630   28.9710 C   0  0  0  0  0  0  0  0  0  0  0  0
   22.0300    7.7170   27.9440 S   0  0  0  0  0  0  0  0  0  0  0  0
   22.6480    8.8960   29.1770 C   0  0  0  0  0  0  0  0  0  0  0  0
   23.7520    8.4100   30.1230 C   0  0  0  0  0  0  0  0  0  0  0  0
   24.3060    9.4500   31.1050 C   0  0  0  0  0  0  0  0  0  0  0  0
   24.1540    8.9780   32.5570 C   0  0  0  0  0  0  0  0  0  0  0  0
   24.3400   10.0810   33.5950 C   0  0  0  0  0  0  0  0  0  0  0  0
   24.1320   11.4720   32.9920 C   0  0  0  0  0  0  0  0  0  0  0  0
  1  4  1  0  0  0  0
  1 19  1  1  0  0  0
  1 12  1  0  0  0  0
  2  3  2  0  0  0  0
  2  5  1  0  0  0  0
  2  4  1  0  0  0  0
  5  6  1  0  0  0  0
  6  8  1  0  0  0  0
  8  7  1  6  0  0  0
  8  9  1  0  0  0  0
  9 10  2  0  0  0  0
  9 11  1  0  0  0  0
 12 14  1  0  0  0  0
 12 13  2  0  0  0  0
 14 15  1  0  0  0  0
 15 16  1  0  0  0  0
 16 18  2  0  0  0  0
 16 17  1  0  0  0  0
 19 20  1  0  0  0  0
 20 21  1  0  0  0  0
 21 22  2  0  0  0  0
 22 23  1  0  0  0  0
 23 24  1  0  0  0  0
 24 25  1  0  0  0  0
 25 26  1  0  0  0  0
M  END
>  <MODEL>
      10

>  <COMPND>
    UNNAMED

>  <AUTHOR>
    GENERATED BY OPEN BABEL 2.4.90

>  <MASTER>
        0    0    0    0    0    0    0    0   26    0   26    0

