__5jcw_B_rec_3csh_lz6_lig_min.pdb
 OpenBabel10191907203D

 38 38  0  0  1  0  0  0  0  0999 V2000
   21.7110    4.5820   28.8670 C   0  0  1  0  0  0  0  0  0  0  0  0
   21.5950    4.3810   30.3560 C   0  0  0  0  0  0  0  0  0  0  0  0
   20.5060    4.5220   30.8730 O   0  0  0  0  0  0  0  0  0  0  0  0
   22.6950    4.0320   31.0310 N   0  0  0  0  0  0  0  0  0  0  0  0
   22.5730    3.5790   32.4030 C   0  0  0  0  0  0  0  0  0  0  0  0
   23.4400    2.3560   32.6180 C   0  0  0  0  0  0  0  0  0  0  0  0
   23.7970    2.0990   33.7890 O   0  0  0  0  0  0  0  0  0  0  0  0
   23.7540    1.6400   31.6350 O   0  0  0  0  0  0  0  0  0  0  0  0
   20.3640    3.7590   27.0130 C   0  0  0  0  0  0  0  0  0  0  0  0
   21.3580    3.3350   26.4240 O   0  0  0  0  0  0  0  0  0  0  0  0
   20.4200    4.4450   28.1640 N   0  0  0  0  0  0  0  0  0  0  0  0
   18.9870    3.5030   26.4490 C   0  0  0  0  0  0  0  0  0  0  0  0
   19.1380    2.8070   25.0920 C   0  0  0  0  0  0  0  0  0  0  0  0
   17.8520    2.1890   24.5360 C   0  0  2  0  0  0  0  0  0  0  0  0
   18.1940    1.4210   23.3170 N   0  0  0  0  0  0  0  0  0  0  0  0
   16.2350    3.8540   25.1190 O   0  0  0  0  0  0  0  0  0  0  0  0
   16.8600    3.2820   24.1760 C   0  0  0  0  0  0  0  0  0  0  0  0
   16.7270    3.5170   22.9390 O   0  0  0  0  0  0  0  0  0  0  0  0
   22.3460    5.9250   28.5620 C   0  0  0  0  0  0  0  0  0  0  0  0
   21.1980    7.2130   28.9470 S   0  0  0  0  0  0  0  0  0  0  0  0
   22.1440    8.6720   29.3380 C   0  0  0  0  0  0  0  0  0  0  0  0
   23.6550    8.3620   29.4280 C   0  0  0  0  0  0  0  0  0  0  0  0
   24.0380    8.2010   30.8430 N   0  0  0  0  0  0  0  0  0  0  0  0
   24.0220    9.2830   31.7440 C   0  0  0  0  0  0  0  0  0  0  0  0
   24.2410    9.0470   33.1000 C   0  0  0  0  0  0  0  0  0  0  0  0
   24.2300   10.0850   34.0230 C   0  0  0  0  0  0  0  0  0  0  0  0
   23.9900   11.3920   33.6140 C   0  0  0  0  0  0  0  0  0  0  0  0
   23.7590   11.6470   32.2630 C   0  0  0  0  0  0  0  0  0  0  0  0
   23.7710   10.5980   31.3360 C   0  0  0  0  0  0  0  0  0  0  0  0
   23.9740   12.4910   34.6540 C   0  0  0  0  0  0  0  0  0  0  0  0
   24.2410   13.8610   34.0430 C   0  0  0  0  0  0  0  0  0  0  0  0
   25.6820   14.2750   34.3000 C   0  0  0  0  0  0  0  0  0  0  0  0
   26.1660   15.2970   33.2870 C   0  0  0  0  0  0  0  0  0  0  0  0
   25.3470   15.8500   32.5090 O   0  0  0  0  0  0  0  0  0  0  0  0
   27.3960   15.5490   33.2580 O   0  0  0  0  0  0  0  0  0  0  0  0
   24.4420    6.8740   31.3430 C   0  0  0  0  0  0  0  0  0  0  0  0
   25.5870    6.3160   30.4920 C   0  0  0  0  0  0  0  0  0  0  0  0
   26.1510    4.7490   31.1850 Cl  0  0  0  0  0  0  0  0  0  0  0  0
  1 11  1  0  0  0  0
  1 19  1  1  0  0  0
  1  2  1  0  0  0  0
  2  3  2  0  0  0  0
  2  4  1  0  0  0  0
  4  5  1  0  0  0  0
  5  6  1  0  0  0  0
  6  8  2  0  0  0  0
  6  7  1  0  0  0  0
  9 10  2  0  0  0  0
  9 12  1  0  0  0  0
  9 11  1  0  0  0  0
 12 13  1  0  0  0  0
 13 14  1  0  0  0  0
 14 15  1  6  0  0  0
 14 17  1  0  0  0  0
 16 17  2  0  0  0  0
 17 18  1  0  0  0  0
 19 20  1  0  0  0  0
 20 21  1  0  0  0  0
 21 22  1  0  0  0  0
 22 23  1  0  0  0  0
 23 24  1  0  0  0  0
 23 36  1  0  0  0  0
 24 29  2  0  0  0  0
 24 25  1  0  0  0  0
 25 26  2  0  0  0  0
 26 27  1  0  0  0  0
 27 28  2  0  0  0  0
 27 30  1  0  0  0  0
 28 29  1  0  0  0  0
 30 31  1  0  0  0  0
 31 32  1  0  0  0  0
 32 33  1  0  0  0  0
 33 34  2  0  0  0  0
 33 35  1  0  0  0  0
 36 37  1  0  0  0  0
 37 38  1  0  0  0  0
M  END
>  <COMPND>
    UNNAMED

>  <AUTHOR>
    GENERATED BY OPEN BABEL 2.4.90

>  <MASTER>
        0    0    0    0    0    0    0    0   38    0   38    0

