__5l6x_A_rec_10gs_vww_lig_docked.pdb
 OpenBabel10191910313D

 33 34  0  0  1  0  0  0  0  0999 V2000
   21.6460    5.1360   28.9620 C   0  0  2  0  0  0  0  0  0  0  0  0
   20.8760    4.1150   26.8770 C   0  0  0  0  0  0  0  0  0  0  0  0
   21.6400    4.7840   26.1810 O   0  0  0  0  0  0  0  0  0  0  0  0
   20.8330    4.1950   28.2030 N   0  0  0  0  0  0  0  0  0  0  0  0
   19.9480    3.0980   26.2610 C   0  0  0  0  0  0  0  0  0  0  0  0
   18.5460    3.1290   26.8390 C   0  0  0  0  0  0  0  0  0  0  0  0
   18.2050    1.3940   25.1060 N   0  0  0  0  0  0  0  0  0  0  0  0
   17.5250    2.4080   25.9560 C   0  0  2  0  0  0  0  0  0  0  0  0
   16.7530    3.4210   25.1010 C   0  0  0  0  0  0  0  0  0  0  0  0
   16.4680    3.1220   23.9210 O   0  0  0  0  0  0  0  0  0  0  0  0
   16.4570    4.5160   25.6200 O   0  0  0  0  0  0  0  0  0  0  0  0
   21.8770    4.6330   30.3740 C   0  0  0  0  0  0  0  0  0  0  0  0
   20.9320    4.3440   31.1080 O   0  0  0  0  0  0  0  0  0  0  0  0
   23.1460    4.5780   30.7530 N   0  0  0  0  0  0  0  0  0  0  0  0
   23.5480    4.1660   32.0850 C   0  0  2  0  0  0  0  0  0  0  0  0
   24.6730    4.9950   32.6130 C   0  0  0  0  0  0  0  0  0  0  0  0
   24.5490    5.6940   33.8080 C   0  0  0  0  0  0  0  0  0  0  0  0
   25.6230    6.4050   34.3330 C   0  0  0  0  0  0  0  0  0  0  0  0
   26.8370    6.4200   33.6590 C   0  0  0  0  0  0  0  0  0  0  0  0
   26.9690    5.7280   32.4630 C   0  0  0  0  0  0  0  0  0  0  0  0
   25.8910    5.0210   31.9460 C   0  0  0  0  0  0  0  0  0  0  0  0
   23.7260    2.6560   32.2450 C   0  0  0  0  0  0  0  0  0  0  0  0
   23.4380    2.1630   33.3520 O   0  0  0  0  0  0  0  0  0  0  0  0
   24.1390    1.9860   31.2750 O   0  0  0  0  0  0  0  0  0  0  0  0
   20.9290    6.4820   29.0710 C   0  0  0  0  0  0  0  0  0  0  0  0
   21.7240    7.8530   28.2480 S   0  0  0  0  0  0  0  0  0  0  0  0
   23.3740    7.7500   28.9710 C   0  0  0  0  0  0  0  0  0  0  0  0
   23.5980    8.7090   30.1110 C   0  0  0  0  0  0  0  0  0  0  0  0
   24.1470    8.2630   31.3090 C   0  0  0  0  0  0  0  0  0  0  0  0
   23.2620   10.0560   29.9870 C   0  0  0  0  0  0  0  0  0  0  0  0
   24.3580    9.1390   32.3690 C   0  0  0  0  0  0  0  0  0  0  0  0
   23.4690   10.9430   31.0440 C   0  0  0  0  0  0  0  0  0  0  0  0
   24.0180   10.4840   32.2360 C   0  0  0  0  0  0  0  0  0  0  0  0
  1  4  1  0  0  0  0
  1 25  1  1  0  0  0
  1 12  1  0  0  0  0
  2  3  2  0  0  0  0
  2  5  1  0  0  0  0
  2  4  1  0  0  0  0
  5  6  1  0  0  0  0
  6  8  1  0  0  0  0
  8  7  1  6  0  0  0
  8  9  1  0  0  0  0
  9 11  2  0  0  0  0
  9 10  1  0  0  0  0
 12 14  1  0  0  0  0
 12 13  2  0  0  0  0
 15 14  1  6  0  0  0
 15 22  1  0  0  0  0
 15 16  1  0  0  0  0
 16 17  2  0  0  0  0
 16 21  1  0  0  0  0
 17 18  1  0  0  0  0
 18 19  2  0  0  0  0
 19 20  1  0  0  0  0
 20 21  2  0  0  0  0
 22 24  2  0  0  0  0
 22 23  1  0  0  0  0
 25 26  1  0  0  0  0
 26 27  1  0  0  0  0
 27 28  1  0  0  0  0
 28 30  2  0  0  0  0
 28 29  1  0  0  0  0
 29 31  2  0  0  0  0
 30 32  1  0  0  0  0
 31 33  1  0  0  0  0
 32 33  2  0  0  0  0
M  END
>  <MODEL>
       7

>  <COMPND>
    UNNAMED

>  <AUTHOR>
    GENERATED BY OPEN BABEL 2.4.90

>  <MASTER>
        0    0    0    0    0    0    0    0   33    0   33    0

