__1ehn_A_rec_2wly_dio_lig_docked.pdb
 OpenBabel10181904503D

  6  6  0  0  0  0  0  0  0  0999 V2000
   31.7370   67.3910   -8.5370 C   0  0  0  0  0  0  0  0  0  0  0  0
   31.5900   69.0380   -6.9210 C   0  0  0  0  0  0  0  0  0  0  0  0
   33.2010   67.7770   -8.3390 C   0  0  0  0  0  0  0  0  0  0  0  0
   32.1530   69.8730   -8.0960 C   0  0  0  0  0  0  0  0  0  0  0  0
   31.0180   67.7970   -7.3800 O   0  0  0  0  0  0  0  0  0  0  0  0
   33.2180   69.1340   -8.7210 O   0  0  0  0  0  0  0  0  0  0  0  0
  1  3  1  0  0  0  0
  1  5  1  0  0  0  0
  2  4  1  0  0  0  0
  2  5  1  0  0  0  0
  3  6  1  0  0  0  0
  4  6  1  0  0  0  0
M  END
>  <MODEL>
       9

>  <COMPND>
    UNNAMED

>  <AUTHOR>
    GENERATED BY OPEN BABEL 2.4.90

>  <MASTER>
        0    0    0    0    0    0    0    0    6    0    6    0

