__1kbq_A_rec_1kbo_340_lig_min.pdb
 OpenBabel10191922253D

 23 25  0  0  0  0  0  0  0  0999 V2000
  -22.1470   16.5120  -30.5490 C   0  0  0  0  0  0  0  0  0  0  0  0
  -20.8610   16.2450  -29.7960 C   0  0  0  0  0  0  0  0  0  0  0  0
  -20.7250   16.6380  -28.4570 C   0  0  0  0  0  0  0  0  0  0  0  0
  -21.8120   17.3040  -27.7800 C   0  0  0  0  0  0  0  0  0  0  0  0
  -23.0190   17.5730  -28.4400 C   0  0  0  0  0  0  0  0  0  0  0  0
  -23.2060   17.1600  -29.9020 C   0  0  0  0  0  0  0  0  0  0  0  0
  -19.6440   16.5100  -27.5490 N   0  0  0  0  0  0  0  0  0  0  0  0
  -20.0300   17.0790  -26.3110 C   0  0  0  0  0  0  0  0  0  0  0  0
  -21.2660   17.5090  -26.5020 C   0  0  0  0  0  0  0  0  0  0  0  0
  -23.9440   18.1310  -27.8990 O   0  0  0  0  0  0  0  0  0  0  0  0
  -19.9520   15.6730  -30.4100 O   0  0  0  0  0  0  0  0  0  0  0  0
  -18.2950   15.9000  -27.7480 C   0  0  0  0  0  0  0  0  0  0  0  0
  -19.1160   17.1310  -25.0770 C   0  0  0  0  0  0  0  0  0  0  0  0
  -24.4460   17.4750  -30.4880 O   0  0  0  0  0  0  0  0  0  0  0  0
  -25.3090   16.4350  -30.9580 C   0  0  0  0  0  0  0  0  0  0  0  0
  -21.9990   18.1760  -25.3750 C   0  0  0  0  0  0  0  0  0  0  0  0
  -22.8030   17.6020  -24.3480 O   0  0  0  0  0  0  0  0  0  0  0  0
  -24.1650   17.1480  -24.3880 C   0  0  0  0  0  0  0  0  0  0  0  0
  -25.4500   16.9320  -25.0570 C   0  0  0  0  0  0  0  0  0  0  0  0
  -26.5520   16.3250  -24.3550 C   0  0  0  0  0  0  0  0  0  0  0  0
  -26.3920   15.9250  -22.9780 C   0  0  0  0  0  0  0  0  0  0  0  0
  -25.1220   16.1340  -22.3100 C   0  0  0  0  0  0  0  0  0  0  0  0
  -24.0190   16.7410  -23.0120 C   0  0  0  0  0  0  0  0  0  0  0  0
  1  6  2  0  0  0  0
  1  2  1  0  0  0  0
  2 11  2  0  0  0  0
  2  3  1  0  0  0  0
  3  4  2  0  0  0  0
  3  7  1  0  0  0  0
  4  5  1  0  0  0  0
  4  9  1  0  0  0  0
  5  6  1  0  0  0  0
  5 10  2  0  0  0  0
  6 14  1  0  0  0  0
  7 12  1  0  0  0  0
  7  8  1  0  0  0  0
  8  9  2  0  0  0  0
  8 13  1  0  0  0  0
  9 16  1  0  0  0  0
 14 15  1  0  0  0  0
 16 17  1  0  0  0  0
 17 18  1  0  0  0  0
 18 19  2  0  0  0  0
 18 23  1  0  0  0  0
 19 20  1  0  0  0  0
 20 21  2  0  0  0  0
 21 22  1  0  0  0  0
 22 23  2  0  0  0  0
M  END
>  <COMPND>
    UNNAMED

>  <AUTHOR>
    GENERATED BY OPEN BABEL 2.4.90

>  <MASTER>
        0    0    0    0    0    0    0    0   23    0   23    0

