__1j0n_A_rec_1j0n_ceg_lig_docked.pdb
 OpenBabel10181915073D

 17 18  0  0  1  0  0  0  0  0999 V2000
   15.5450   57.7220   81.2570 C   0  0  1  0  0  0  0  0  0  0  0  0
   15.3330   56.5130   82.1930 C   0  0  2  0  0  0  0  0  0  0  0  0
   13.9490   55.8240   82.0190 C   0  0  2  0  0  0  0  0  0  0  0  0
   12.9050   56.8060   81.4880 C   0  0  1  0  0  0  0  0  0  0  0  0
   13.3270   57.3600   80.0830 C   0  0  1  0  0  0  0  0  0  0  0  0
   12.3610   58.1690   79.8280 C   0  0  0  0  0  0  0  0  0  0  0  0
   10.6200   57.0530   81.0400 C   0  0  1  0  0  0  0  0  0  0  0  0
    9.6990   56.0960   80.1860 C   0  0  0  0  0  0  0  0  0  0  0  0
   16.8660   57.7580   80.8650 O   0  0  0  0  0  0  0  0  0  0  0  0
   15.4670   56.9840   83.5270 O   0  0  0  0  0  0  0  0  0  0  0  0
   13.5150   55.3180   83.2830 O   0  0  0  0  0  0  0  0  0  0  0  0
   11.6380   56.0980   81.3800 O   0  0  0  0  0  0  0  0  0  0  0  0
   14.7810   57.6510   80.0490 O   0  0  0  0  0  0  0  0  0  0  0  0
   10.9530   57.9250   79.8440 O   0  0  0  0  0  0  0  0  0  0  0  0
   10.0450   57.6510   82.2110 C   0  0  0  0  0  0  0  0  0  0  0  0
   10.2360   57.1590   83.3370 O   0  0  0  0  0  0  0  0  0  0  0  0
    9.3610   58.6720   81.9730 O   0  0  0  0  0  0  0  0  0  0  0  0
  1 13  1  0  0  0  0
  1  9  1  6  0  0  0
  1  2  1  0  0  0  0
  2  3  1  0  0  0  0
  2 10  1  1  0  0  0
  3  4  1  0  0  0  0
  3 11  1  1  0  0  0
  4  5  1  0  0  0  0
  4 12  1  6  0  0  0
  5  6  1  1  0  0  0
  5 13  1  0  0  0  0
  6 14  1  0  0  0  0
  7 14  1  0  0  0  0
  7  8  1  6  0  0  0
  7 12  1  0  0  0  0
  7 15  1  0  0  0  0
 15 17  2  0  0  0  0
 15 16  1  0  0  0  0
M  END
>  <MODEL>
       5

>  <COMPND>
    UNNAMED

>  <AUTHOR>
    GENERATED BY OPEN BABEL 2.4.90

>  <MASTER>
        0    0    0    0    0    0    0    0   17    0   17    0

