
     RDKit          3D

 11 12  0  0  0  0  0  0  0  0999 V2000
   32.8010   26.6000   33.9210 C   0  0  0  0  0  0  0  0  0  0  0  0
   31.4270   27.1240   34.1150 N   0  0  0  0  0  0  0  0  0  0  0  0
   30.9330   27.7240   35.2400 C   0  0  0  0  0  0  0  0  0  0  0  0
   29.6960   28.0620   35.0530 N   0  0  0  0  0  0  0  0  0  0  0  0
   29.3070   27.7180   33.7920 C   0  0  0  0  0  0  0  0  0  0  0  0
   30.4150   27.1100   33.1760 C   0  0  0  0  0  0  0  0  0  0  0  0
   30.2930   26.6730   31.9130 N   0  0  0  0  0  0  0  0  0  0  0  0
   29.1600   26.7960   31.2370 C   0  0  0  0  0  0  0  0  0  0  0  0
   28.0860   27.3520   31.7820 N   0  0  0  0  0  0  0  0  0  0  0  0
   28.1040   27.8290   33.0380 C   0  0  0  0  0  0  0  0  0  0  0  0
   26.9680   28.4050   33.5870 N   0  0  0  0  0  0  0  0  0  0  0  0
  1  2  1  1
  2  6  1  0
  2  3  1  0
  3  4  1  0
  4  5  1  0
  5  6  1  0
  5 10  1  0
  6  7  1  0
  7  8  1  0
  8  9  1  0
  9 10  1  0
 10 11  1  0
M  END
$$$$
