__1yc5_A_rec_1yc5_nca_lig_docked.pdb
 OpenBabel10191922433D

  9  9  0  0  0  0  0  0  0  0999 V2000
    5.7190   25.0920   10.4630 N   0  0  0  0  0  0  0  0  0  0  0  0
    4.8910   24.3710    9.6670 C   0  0  0  0  0  0  0  0  0  0  0  0
    3.5030   24.4930    9.7890 C   0  0  0  0  0  0  0  0  0  0  0  0
    2.9620   25.3760   10.7310 C   0  0  0  0  0  0  0  0  0  0  0  0
    3.8060   26.1190   11.5540 C   0  0  0  0  0  0  0  0  0  0  0  0
    5.2650   25.9410   11.3930 C   0  0  0  0  0  0  0  0  0  0  0  0
    2.5840   23.6980    8.9080 C   0  0  0  0  0  0  0  0  0  0  0  0
    1.3720   23.7930    9.0500 O   0  0  0  0  0  0  0  0  0  0  0  0
    3.1110   22.8830    7.9910 N   0  0  0  0  0  0  0  0  0  0  0  0
  1  2  2  0  0  0  0
  1  6  1  0  0  0  0
  2  3  1  0  0  0  0
  3  7  1  0  0  0  0
  3  4  2  0  0  0  0
  4  5  1  0  0  0  0
  5  6  2  0  0  0  0
  7  9  1  0  0  0  0
  7  8  2  0  0  0  0
M  END
>  <MODEL>
       2

>  <COMPND>
    UNNAMED

>  <AUTHOR>
    GENERATED BY OPEN BABEL 2.4.90

>  <MASTER>
        0    0    0    0    0    0    0    0    9    0    9    0

