__2h2d_A_rec_2h4j_nca_lig_docked.pdb
 OpenBabel10191922503D

  9  9  0  0  0  0  0  0  0  0999 V2000
    6.0210   24.7380   10.9820 N   0  0  0  0  0  0  0  0  0  0  0  0
    5.1670   24.0730   10.1660 C   0  0  0  0  0  0  0  0  0  0  0  0
    3.7800   24.3100   10.1610 C   0  0  0  0  0  0  0  0  0  0  0  0
    3.2640   25.2790   11.0320 C   0  0  0  0  0  0  0  0  0  0  0  0
    4.1310   25.9740   11.8860 C   0  0  0  0  0  0  0  0  0  0  0  0
    5.5900   25.6700   11.8480 C   0  0  0  0  0  0  0  0  0  0  0  0
    2.8430   23.5500    9.2280 C   0  0  0  0  0  0  0  0  0  0  0  0
    1.6630   23.8260    9.2620 O   0  0  0  0  0  0  0  0  0  0  0  0
    3.2890   22.5910    8.3960 N   0  0  0  0  0  0  0  0  0  0  0  0
  1  2  2  0  0  0  0
  1  6  1  0  0  0  0
  2  3  1  0  0  0  0
  3  7  1  0  0  0  0
  3  4  2  0  0  0  0
  4  5  1  0  0  0  0
  5  6  2  0  0  0  0
  7  9  1  0  0  0  0
  7  8  2  0  0  0  0
M  END
>  <MODEL>
       2

>  <COMPND>
    UNNAMED

>  <AUTHOR>
    GENERATED BY OPEN BABEL 2.4.90

>  <MASTER>
        0    0    0    0    0    0    0    0    9    0    9    0

