__2h2g_A_rec_2h4j_nca_lig_min.pdb
 OpenBabel10191922253D

  9  9  0  0  0  0  0  0  0  0999 V2000
    5.8670   24.3520   10.7640 N   0  0  0  0  0  0  0  0  0  0  0  0
    4.9640   23.9740    9.8260 C   0  0  0  0  0  0  0  0  0  0  0  0
    3.5790   23.9450   10.0700 C   0  0  0  0  0  0  0  0  0  0  0  0
    3.1160   24.3310   11.3350 C   0  0  0  0  0  0  0  0  0  0  0  0
    4.0330   24.7220   12.3190 C   0  0  0  0  0  0  0  0  0  0  0  0
    5.4900   24.7230   11.9980 C   0  0  0  0  0  0  0  0  0  0  0  0
    2.5860   23.5190    8.9950 C   0  0  0  0  0  0  0  0  0  0  0  0
    1.4330   23.8700    9.1170 O   0  0  0  0  0  0  0  0  0  0  0  0
    2.9560   22.7670    7.9410 N   0  0  0  0  0  0  0  0  0  0  0  0
  1  2  2  0  0  0  0
  1  6  1  0  0  0  0
  2  3  1  0  0  0  0
  3  7  1  0  0  0  0
  3  4  2  0  0  0  0
  4  5  1  0  0  0  0
  5  6  2  0  0  0  0
  7  9  1  0  0  0  0
  7  8  2  0  0  0  0
M  END
>  <COMPND>
    UNNAMED

>  <AUTHOR>
    GENERATED BY OPEN BABEL 2.4.90

>  <MASTER>
        0    0    0    0    0    0    0    0    9    0    9    0

