__2h2i_A_rec_1yc5_nca_lig_min.pdb
 OpenBabel10191922433D

  9  9  0  0  0  0  0  0  0  0999 V2000
    5.7950   25.2260   10.4880 N   0  0  0  0  0  0  0  0  0  0  0  0
    5.0330   24.4720    9.6580 C   0  0  0  0  0  0  0  0  0  0  0  0
    3.6550   24.3560    9.8670 C   0  0  0  0  0  0  0  0  0  0  0  0
    3.0530   25.0320   10.9350 C   0  0  0  0  0  0  0  0  0  0  0  0
    3.8300   25.8080   11.7940 C   0  0  0  0  0  0  0  0  0  0  0  0
    5.2840   25.8840   11.5360 C   0  0  0  0  0  0  0  0  0  0  0  0
    2.8080   23.5250    8.9480 C   0  0  0  0  0  0  0  0  0  0  0  0
    1.5870   23.6170    8.9960 O   0  0  0  0  0  0  0  0  0  0  0  0
    3.4050   22.6820    8.1030 N   0  0  0  0  0  0  0  0  0  0  0  0
  1  2  2  0  0  0  0
  1  6  1  0  0  0  0
  2  3  1  0  0  0  0
  3  7  1  0  0  0  0
  3  4  2  0  0  0  0
  4  5  1  0  0  0  0
  5  6  2  0  0  0  0
  7  9  1  0  0  0  0
  7  8  2  0  0  0  0
M  END
>  <COMPND>
    UNNAMED

>  <AUTHOR>
    GENERATED BY OPEN BABEL 2.4.90

>  <MASTER>
        0    0    0    0    0    0    0    0    9    0    9    0

