__2h2i_A_rec_1yc5_nca_lig_docked.pdb
 OpenBabel10191922453D

  9  9  0  0  0  0  0  0  0  0999 V2000
    5.3820   25.8840   10.3670 N   0  0  0  0  0  0  0  0  0  0  0  0
    4.6890   25.0810    9.5220 C   0  0  0  0  0  0  0  0  0  0  0  0
    3.4980   24.4740    9.9330 C   0  0  0  0  0  0  0  0  0  0  0  0
    3.0080   24.7060   11.2240 C   0  0  0  0  0  0  0  0  0  0  0  0
    3.7150   25.5290   12.1000 C   0  0  0  0  0  0  0  0  0  0  0  0
    4.9760   26.1330   11.6180 C   0  0  0  0  0  0  0  0  0  0  0  0
    2.7280   23.5870    8.9990 C   0  0  0  0  0  0  0  0  0  0  0  0
    1.5040   23.6300    8.9900 O   0  0  0  0  0  0  0  0  0  0  0  0
    3.3960   22.7490    8.2050 N   0  0  0  0  0  0  0  0  0  0  0  0
  1  2  2  0  0  0  0
  1  6  1  0  0  0  0
  2  3  1  0  0  0  0
  3  7  1  0  0  0  0
  3  4  2  0  0  0  0
  4  5  1  0  0  0  0
  5  6  2  0  0  0  0
  7  9  1  0  0  0  0
  7  8  2  0  0  0  0
M  END
>  <MODEL>
       2

>  <COMPND>
    UNNAMED

>  <AUTHOR>
    GENERATED BY OPEN BABEL 2.4.90

>  <MASTER>
        0    0    0    0    0    0    0    0    9    0    9    0

