__2h2i_A_rec_4buz_ocz_lig_docked.pdb
 OpenBabel10191922453D

 17 19  0  0  1  0  0  0  0  0999 V2000
    2.7590   24.2970   12.4860 N   0  0  0  0  0  0  0  0  0  0  0  0
    4.8020   26.3600   10.3810 C   0  0  0  0  0  0  0  0  0  0  0  0
    1.9710   25.8060   14.2570 C   0  0  0  0  0  0  0  0  0  0  0  0
    2.0350   27.1010   14.7740 C   0  0  0  0  0  0  0  0  0  0  0  0
    2.6460   25.4710   13.1260 C   0  0  1  0  0  0  0  0  0  0  0  0
    2.8400   29.6990   14.7420 Cl  0  0  0  0  0  0  0  0  0  0  0  0
    3.3760   26.3840   12.4490 C   0  0  0  0  0  0  0  0  0  0  0  0
    3.4400   27.6570   12.9250 C   0  0  0  0  0  0  0  0  0  0  0  0
    3.9260   25.8130   11.3590 C   0  0  0  0  0  0  0  0  0  0  0  0
    3.5410   24.4890   11.3480 C   0  0  0  0  0  0  0  0  0  0  0  0
    2.7840   28.0450   14.0990 C   0  0  0  0  0  0  0  0  0  0  0  0
    4.8020   25.5930    9.1600 C   0  0  0  0  0  0  0  0  0  0  0  0
    3.9420   23.5880   10.2760 C   0  0  2  0  0  0  0  0  0  0  0  0
    5.1350   24.1510    9.4710 C   0  0  0  0  0  0  0  0  0  0  0  0
    3.1720   22.4870    8.2650 N   0  0  0  0  0  0  0  0  0  0  0  0
    1.7170   23.7680    9.4390 O   0  0  0  0  0  0  0  0  0  0  0  0
    2.8650   23.3070    9.3150 C   0  0  0  0  0  0  0  0  0  0  0  0
  1 10  2  0  0  0  0
  1  5  1  0  0  0  0
  2 12  1  0  0  0  0
  2  9  1  0  0  0  0
  3  4  2  0  0  0  0
  4 11  1  0  0  0  0
  5  3  1  1  0  0  0
  5  7  1  0  0  0  0
  6 11  1  0  0  0  0
  7  9  2  0  0  0  0
  7  8  1  0  0  0  0
  8 11  2  0  0  0  0
  9 10  1  0  0  0  0
 10 13  1  0  0  0  0
 12 14  1  0  0  0  0
 13 14  1  0  0  0  0
 13 17  1  6  0  0  0
 15 17  1  0  0  0  0
 16 17  2  0  0  0  0
M  END
>  <MODEL>
       8

>  <COMPND>
    UNNAMED

>  <AUTHOR>
    GENERATED BY OPEN BABEL 2.4.90

>  <MASTER>
        0    0    0    0    0    0    0    0   17    0   17    0

