__2h2i_A_rec_4bv2_ocz_lig_docked.pdb
 OpenBabel10191922453D

 17 19  0  0  1  0  0  0  0  0999 V2000
    2.6730   24.5100   12.2640 N   0  0  0  0  0  0  0  0  0  0  0  0
    4.9350   26.2440   10.2670 C   0  0  0  0  0  0  0  0  0  0  0  0
    1.9620   26.1050   13.9840 C   0  0  0  0  0  0  0  0  0  0  0  0
    2.0810   27.3810   14.5210 C   0  0  0  0  0  0  0  0  0  0  0  0
    2.6560   25.6950   12.9020 C   0  0  2  0  0  0  0  0  0  0  0  0
    3.1210   29.8350   14.5520 Cl  0  0  0  0  0  0  0  0  0  0  0  0
    3.5010   26.5260   12.2670 C   0  0  0  0  0  0  0  0  0  0  0  0
    3.6560   27.7930   12.7480 C   0  0  0  0  0  0  0  0  0  0  0  0
    4.0190   25.8320   11.2220 C   0  0  0  0  0  0  0  0  0  0  0  0
    3.4910   24.5750   11.2120 C   0  0  0  0  0  0  0  0  0  0  0  0
    2.9510   28.2440   13.8870 C   0  0  0  0  0  0  0  0  0  0  0  0
    5.0710   25.2490    9.1250 C   0  0  0  0  0  0  0  0  0  0  0  0
    3.8090   23.5390   10.2690 C   0  0  2  0  0  0  0  0  0  0  0  0
    5.1210   23.8200    9.6080 C   0  0  0  0  0  0  0  0  0  0  0  0
    3.2250   22.4840    8.2960 N   0  0  0  0  0  0  0  0  0  0  0  0
    1.6860   23.7620    9.3420 O   0  0  0  0  0  0  0  0  0  0  0  0
    2.8210   23.2840    9.2840 C   0  0  0  0  0  0  0  0  0  0  0  0
  1 10  2  0  0  0  0
  1  5  1  0  0  0  0
  2 12  1  0  0  0  0
  2  9  1  0  0  0  0
  3  4  2  0  0  0  0
  4 11  1  0  0  0  0
  5  3  1  6  0  0  0
  5  7  1  0  0  0  0
  6 11  1  0  0  0  0
  7  9  2  0  0  0  0
  7  8  1  0  0  0  0
  8 11  2  0  0  0  0
  9 10  1  0  0  0  0
 10 13  1  0  0  0  0
 12 14  1  0  0  0  0
 13 14  1  0  0  0  0
 13 17  1  6  0  0  0
 15 17  1  0  0  0  0
 16 17  2  0  0  0  0
M  END
>  <MODEL>
       7

>  <COMPND>
    UNNAMED

>  <AUTHOR>
    GENERATED BY OPEN BABEL 2.4.90

>  <MASTER>
        0    0    0    0    0    0    0    0   17    0   17    0

