__2h4h_A_rec_2h4f_nad_lig_docked.pdb
 OpenBabel10191922493D

 44 48  0  0  1  0  0  0  0  0999 V2000
   10.0320   20.9720   12.4420 P   0  0  1  0  0  0  0  0  0  0  0  0
   10.8510   21.3710   13.6220 O   0  0  0  0  0  0  0  0  0  0  0  0
    9.6050   21.9720   11.3770 O   0  0  0  0  0  0  0  0  0  0  0  0
   10.7350   19.7450   11.7080 O   0  0  0  0  0  0  0  0  0  0  0  0
   10.3370   19.2840   10.4140 C   0  0  0  0  0  0  0  0  0  0  0  0
   11.2740   18.1110   10.1720 C   0  0  1  0  0  0  0  0  0  0  0  0
   11.0850   17.5940    8.8760 O   0  0  0  0  0  0  0  0  0  0  0  0
   12.7680   18.4550   10.2290 C   0  0  1  0  0  0  0  0  0  0  0  0
   13.3640   17.3920   11.0020 O   0  0  0  0  0  0  0  0  0  0  0  0
   13.2720   18.3940    8.8030 C   0  0  1  0  0  0  0  0  0  0  0  0
   14.5570   17.7730    8.7400 O   0  0  0  0  0  0  0  0  0  0  0  0
   12.3450   17.3480    8.2230 C   0  0  2  0  0  0  0  0  0  0  0  0
   12.0120   17.5510    6.8170 N   0  0  0  0  0  0  0  0  0  0  0  0
   12.0790   18.7350    6.1560 C   0  0  0  0  0  0  0  0  0  0  0  0
   11.6030   18.5450    4.9130 N   0  0  0  0  0  0  0  0  0  0  0  0
   11.2440   17.2500    4.7750 C   0  0  0  0  0  0  0  0  0  0  0  0
   10.6700   16.4090    3.7140 C   0  0  0  0  0  0  0  0  0  0  0  0
   10.4040   16.9420    2.5050 N   0  0  0  0  0  0  0  0  0  0  0  0
   10.4540   15.1170    3.9810 N   0  0  0  0  0  0  0  0  0  0  0  0
   10.7320   14.5460    5.1760 C   0  0  0  0  0  0  0  0  0  0  0  0
   11.2170   15.2670    6.1930 N   0  0  0  0  0  0  0  0  0  0  0  0
   11.5110   16.5930    6.0370 C   0  0  0  0  0  0  0  0  0  0  0  0
    8.7120   20.1950   12.9130 O   0  0  0  0  0  0  0  0  0  0  0  0
    8.0970   19.9980   14.3590 P   0  0  2  0  0  0  0  0  0  0  0  0
    8.2510   21.2190   15.1960 O   0  0  0  0  0  0  0  0  0  0  0  0
    8.6210   18.6770   14.8290 O   0  0  0  0  0  0  0  0  0  0  0  0
    6.5200   19.7880   14.0760 O   0  0  0  0  0  0  0  0  0  0  0  0
    5.7040   20.9000   13.6300 C   0  0  0  0  0  0  0  0  0  0  0  0
    5.7690   22.1510   14.4830 C   0  0  1  0  0  0  0  0  0  0  0  0
    6.3400   23.2320   13.7110 O   0  0  0  0  0  0  0  0  0  0  0  0
    4.4380   22.6760   14.9780 C   0  0  1  0  0  0  0  0  0  0  0  0
    4.7270   23.2210   16.2710 O   0  0  0  0  0  0  0  0  0  0  0  0
    4.0770   23.8290   14.0410 C   0  0  1  0  0  0  0  0  0  0  0  0
    3.8120   25.0160   14.7960 O   0  0  0  0  0  0  0  0  0  0  0  0
    5.3460   24.1810   13.2700 C   0  0  2  0  0  0  0  0  0  0  0  0
    5.2050   24.3780   11.7950 N   0  0  0  0  0  0  0  0  0  0  0  0
    4.1860   23.8100   11.1070 C   0  0  0  0  0  0  0  0  0  0  0  0
    4.0570   24.0440    9.7300 C   0  0  0  0  0  0  0  0  0  0  0  0
    4.9550   24.8830    9.0460 C   0  0  0  0  0  0  0  0  0  0  0  0
    5.9790   25.4620    9.7880 C   0  0  0  0  0  0  0  0  0  0  0  0
    6.0680   25.1950   11.1640 C   0  0  0  0  0  0  0  0  0  0  0  0
    2.9470   23.3930    8.9810 C   0  0  0  0  0  0  0  0  0  0  0  0
    1.8020   23.7340    9.2370 O   0  0  0  0  0  0  0  0  0  0  0  0
    3.2480   22.4590    8.0700 N   0  0  0  0  0  0  0  0  0  0  0  0
  1  3  2  6  0  0  0
  1  4  1  0  0  0  0
  1 23  1  0  0  0  0
  1  2  1  0  0  0  0
  4  5  1  0  0  0  0
  6  5  1  6  0  0  0
  6  7  1  0  0  0  0
  6  8  1  0  0  0  0
  7 12  1  0  0  0  0
  8 10  1  0  0  0  0
  8  9  1  1  0  0  0
 10 12  1  0  0  0  0
 10 11  1  1  0  0  0
 12 13  1  6  0  0  0
 13 22  1  0  0  0  0
 13 14  1  0  0  0  0
 14 15  2  0  0  0  0
 15 16  1  0  0  0  0
 16 17  2  0  0  0  0
 16 22  1  0  0  0  0
 17 18  1  0  0  0  0
 17 19  1  0  0  0  0
 19 20  2  0  0  0  0
 20 21  1  0  0  0  0
 21 22  2  0  0  0  0
 23 24  1  0  0  0  0
 24 26  2  1  0  0  0
 24 25  1  0  0  0  0
 24 27  1  0  0  0  0
 27 28  1  0  0  0  0
 29 28  1  6  0  0  0
 29 30  1  0  0  0  0
 29 31  1  0  0  0  0
 30 35  1  0  0  0  0
 31 33  1  0  0  0  0
 31 32  1  1  0  0  0
 33 35  1  0  0  0  0
 33 34  1  1  0  0  0
 35 36  1  6  0  0  0
 36 37  1  0  0  0  0
 36 41  1  0  0  0  0
 37 38  1  0  0  0  0
 38 42  1  0  0  0  0
 38 39  2  0  0  0  0
 39 40  1  0  0  0  0
 40 41  2  0  0  0  0
 42 44  1  0  0  0  0
 42 43  2  0  0  0  0
M  END
>  <MODEL>
       2

>  <COMPND>
    UNNAMED

>  <AUTHOR>
    GENERATED BY OPEN BABEL 2.4.90

>  <MASTER>
        0    0    0    0    0    0    0    0   44    0   44    0

