__2h4j_A_rec_2h4f_nad_lig_docked.pdb
 OpenBabel10191922533D

 44 48  0  0  1  0  0  0  0  0999 V2000
   10.3950   20.6420   12.3800 P   0  0  1  0  0  0  0  0  0  0  0  0
   11.1240   20.9860   13.6340 O   0  0  0  0  0  0  0  0  0  0  0  0
   10.0200   21.6950   11.3470 O   0  0  0  0  0  0  0  0  0  0  0  0
   11.1710   19.4720   11.6260 O   0  0  0  0  0  0  0  0  0  0  0  0
   10.7550   18.9540   10.3600 C   0  0  0  0  0  0  0  0  0  0  0  0
   11.8930   18.0190    9.9880 C   0  0  1  0  0  0  0  0  0  0  0  0
   11.7360   17.5580    8.6660 O   0  0  0  0  0  0  0  0  0  0  0  0
   13.2870   18.6590   10.0020 C   0  0  1  0  0  0  0  0  0  0  0  0
   14.1320   17.6960   10.6650 O   0  0  0  0  0  0  0  0  0  0  0  0
   13.7060   18.7950    8.5540 C   0  0  1  0  0  0  0  0  0  0  0  0
   15.0840   18.4590    8.3850 O   0  0  0  0  0  0  0  0  0  0  0  0
   12.9770   17.6190    7.9400 C   0  0  2  0  0  0  0  0  0  0  0  0
   12.5260   17.8390    6.5700 N   0  0  0  0  0  0  0  0  0  0  0  0
   12.5640   19.0250    5.9100 C   0  0  0  0  0  0  0  0  0  0  0  0
   11.9750   18.8540    4.7130 N   0  0  0  0  0  0  0  0  0  0  0  0
   11.5710   17.5690    4.6040 C   0  0  0  0  0  0  0  0  0  0  0  0
   10.8830   16.7500    3.5950 C   0  0  0  0  0  0  0  0  0  0  0  0
   10.5240   17.2960    2.4170 N   0  0  0  0  0  0  0  0  0  0  0  0
   10.6580   15.4620    3.8770 N   0  0  0  0  0  0  0  0  0  0  0  0
   11.0270   14.8770    5.0400 C   0  0  0  0  0  0  0  0  0  0  0  0
   11.6180   15.5800    6.0120 N   0  0  0  0  0  0  0  0  0  0  0  0
   11.9330   16.8980    5.8350 C   0  0  0  0  0  0  0  0  0  0  0  0
    9.0630   19.8180   12.7140 O   0  0  0  0  0  0  0  0  0  0  0  0
    8.4330   19.4050   14.1080 P   0  0  2  0  0  0  0  0  0  0  0  0
    9.3600   18.5560   14.9030 O   0  0  0  0  0  0  0  0  0  0  0  0
    7.0490   18.9360   13.7860 O   0  0  0  0  0  0  0  0  0  0  0  0
    8.2670   20.8150   14.8810 O   0  0  0  0  0  0  0  0  0  0  0  0
    7.7430   21.9720   14.1830 C   0  0  0  0  0  0  0  0  0  0  0  0
    6.7440   22.8120   14.9520 C   0  0  1  0  0  0  0  0  0  0  0  0
    6.4370   24.0080   14.1980 O   0  0  0  0  0  0  0  0  0  0  0  0
    5.4050   22.1570   15.2200 C   0  0  1  0  0  0  0  0  0  0  0  0
    5.0110   22.6600   16.5020 O   0  0  0  0  0  0  0  0  0  0  0  0
    4.4520   22.7240   14.1680 C   0  0  1  0  0  0  0  0  0  0  0  0
    3.2950   23.2840   14.7980 O   0  0  0  0  0  0  0  0  0  0  0  0
    5.1440   23.9420   13.5600 C   0  0  2  0  0  0  0  0  0  0  0  0
    5.1160   24.0580   12.0710 N   0  0  0  0  0  0  0  0  0  0  0  0
    4.0550   23.6180   11.3530 C   0  0  0  0  0  0  0  0  0  0  0  0
    4.0400   23.7750    9.9590 C   0  0  0  0  0  0  0  0  0  0  0  0
    5.1010   24.4080    9.2870 C   0  0  0  0  0  0  0  0  0  0  0  0
    6.1660   24.8610   10.0570 C   0  0  0  0  0  0  0  0  0  0  0  0
    6.1360   24.6780   11.4490 C   0  0  0  0  0  0  0  0  0  0  0  0
    2.8790   23.2650    9.1810 C   0  0  0  0  0  0  0  0  0  0  0  0
    1.7600   23.6370    9.5040 O   0  0  0  0  0  0  0  0  0  0  0  0
    3.1070   22.4150    8.1710 N   0  0  0  0  0  0  0  0  0  0  0  0
  1  3  2  6  0  0  0
  1  4  1  0  0  0  0
  1 23  1  0  0  0  0
  1  2  1  0  0  0  0
  4  5  1  0  0  0  0
  6  5  1  6  0  0  0
  6  7  1  0  0  0  0
  6  8  1  0  0  0  0
  7 12  1  0  0  0  0
  8 10  1  0  0  0  0
  8  9  1  1  0  0  0
 10 12  1  0  0  0  0
 10 11  1  1  0  0  0
 12 13  1  6  0  0  0
 13 22  1  0  0  0  0
 13 14  1  0  0  0  0
 14 15  2  0  0  0  0
 15 16  1  0  0  0  0
 16 17  2  0  0  0  0
 16 22  1  0  0  0  0
 17 18  1  0  0  0  0
 17 19  1  0  0  0  0
 19 20  2  0  0  0  0
 20 21  1  0  0  0  0
 21 22  2  0  0  0  0
 23 24  1  0  0  0  0
 24 26  2  6  0  0  0
 24 25  1  0  0  0  0
 24 27  1  0  0  0  0
 27 28  1  0  0  0  0
 29 28  1  6  0  0  0
 29 30  1  0  0  0  0
 29 31  1  0  0  0  0
 30 35  1  0  0  0  0
 31 33  1  0  0  0  0
 31 32  1  1  0  0  0
 33 35  1  0  0  0  0
 33 34  1  1  0  0  0
 35 36  1  6  0  0  0
 36 37  1  0  0  0  0
 36 41  1  0  0  0  0
 37 38  1  0  0  0  0
 38 42  1  0  0  0  0
 38 39  2  0  0  0  0
 39 40  1  0  0  0  0
 40 41  2  0  0  0  0
 42 44  1  0  0  0  0
 42 43  2  0  0  0  0
M  END
>  <MODEL>
       1

>  <COMPND>
    UNNAMED

>  <AUTHOR>
    GENERATED BY OPEN BABEL 2.4.90

>  <MASTER>
        0    0    0    0    0    0    0    0   44    0   44    0

