__2h59_A_rec_4buz_ocz_lig_min.pdb
 OpenBabel10191922243D

 17 19  0  0  1  0  0  0  0  0999 V2000
    2.5560   23.8220   11.8800 N   0  0  0  0  0  0  0  0  0  0  0  0
    3.0060   26.9920   10.2660 C   0  0  0  0  0  0  0  0  0  0  0  0
    1.7360   24.3800   14.1260 C   0  0  0  0  0  0  0  0  0  0  0  0
    1.4220   25.4150   15.0090 C   0  0  0  0  0  0  0  0  0  0  0  0
    2.1660   24.6450   12.8650 C   0  0  1  0  0  0  0  0  0  0  0  0
    1.1130   28.0320   15.6840 Cl  0  0  0  0  0  0  0  0  0  0  0  0
    2.2780   25.9130   12.4140 C   0  0  0  0  0  0  0  0  0  0  0  0
    1.9630   26.9380   13.2520 C   0  0  0  0  0  0  0  0  0  0  0  0
    2.7010   25.9080   11.1350 C   0  0  0  0  0  0  0  0  0  0  0  0
    2.8740   24.5920   10.7620 C   0  0  0  0  0  0  0  0  0  0  0  0
    1.5400   26.7180   14.5680 C   0  0  0  0  0  0  0  0  0  0  0  0
    2.9860   26.6010    8.8780 C   0  0  0  0  0  0  0  0  0  0  0  0
    3.2990   24.2310    9.4160 C   0  0  2  0  0  0  0  0  0  0  0  0
    3.9240   25.4320    8.6710 C   0  0  0  0  0  0  0  0  0  0  0  0
    2.5580   23.1580    7.3800 N   0  0  0  0  0  0  0  0  0  0  0  0
    1.0130   23.7680    8.9220 O   0  0  0  0  0  0  0  0  0  0  0  0
    2.2060   23.7190    8.5760 C   0  0  0  0  0  0  0  0  0  0  0  0
  1 10  2  0  0  0  0
  1  5  1  0  0  0  0
  2 12  1  0  0  0  0
  2  9  1  0  0  0  0
  3  4  2  0  0  0  0
  4 11  1  0  0  0  0
  5  3  1  1  0  0  0
  5  7  1  0  0  0  0
  6 11  1  0  0  0  0
  7  9  2  0  0  0  0
  7  8  1  0  0  0  0
  8 11  2  0  0  0  0
  9 10  1  0  0  0  0
 10 13  1  0  0  0  0
 12 14  1  0  0  0  0
 13 14  1  0  0  0  0
 13 17  1  6  0  0  0
 15 17  1  0  0  0  0
 16 17  2  0  0  0  0
M  END
>  <COMPND>
    UNNAMED

>  <AUTHOR>
    GENERATED BY OPEN BABEL 2.4.90

>  <MASTER>
        0    0    0    0    0    0    0    0   17    0   17    0

