__2h59_A_rec_2h59_3od_lig_docked.pdb
 OpenBabel10191922443D

 39 42  0  0  1  0  0  0  0  0999 V2000
   10.2040   21.0580   11.9580 P   0  0  2  0  0  0  0  0  0  0  0  0
   11.1120   21.4640   13.0880 O   0  0  0  0  0  0  0  0  0  0  0  0
   10.0800   21.9220   10.7180 O   0  0  0  0  0  0  0  0  0  0  0  0
    8.7020   20.9220   12.4630 O   0  0  0  0  0  0  0  0  0  0  0  0
    8.0050   20.0320   13.6390 P   0  0  2  0  0  0  0  0  0  0  0  0
    9.1290   19.4520   14.4400 O   0  0  0  0  0  0  0  0  0  0  0  0
    6.8070   19.3070   13.1390 O   0  0  0  0  0  0  0  0  0  0  0  0
    7.4640   21.1660   14.6370 O   0  0  0  0  0  0  0  0  0  0  0  0
    6.1180   21.6150   14.8330 C   0  0  0  0  0  0  0  0  0  0  0  0
    5.5530   24.0960   14.3600 C   0  0  1  0  0  0  0  0  0  0  0  0
    6.1830   25.3290   15.0000 C   0  0  1  0  0  0  0  0  0  0  0  0
    5.5590   25.5580   16.2380 O   0  0  0  0  0  0  0  0  0  0  0  0
    7.6050   24.8800   15.3160 C   0  0  1  0  0  0  0  0  0  0  0  0
    8.1270   25.6710   16.3890 O   0  0  0  0  0  0  0  0  0  0  0  0
    7.5730   23.4500   15.6030 O   0  0  0  0  0  0  0  0  0  0  0  0
    6.5630   23.0290   14.6880 C   0  0  1  0  0  0  0  0  0  0  0  0
    4.2080   23.7260   14.7000 O   0  0  0  0  0  0  0  0  0  0  0  0
    2.5330   24.8010   15.9160 O   0  0  0  0  0  0  0  0  0  0  0  0
    3.0050   24.5580   14.8060 C   0  0  0  0  0  0  0  0  0  0  0  0
    2.3160   25.0150   13.5520 C   0  0  0  0  0  0  0  0  0  0  0  0
   10.6390   19.6380   11.4370 O   0  0  0  0  0  0  0  0  0  0  0  0
   10.4370   19.2620   10.0790 C   0  0  0  0  0  0  0  0  0  0  0  0
   11.3980   18.1570    9.7780 C   0  0  2  0  0  0  0  0  0  0  0  0
   12.8220   18.7110    9.7740 C   0  0  1  0  0  0  0  0  0  0  0  0
   13.7270   17.8690   10.4900 O   0  0  0  0  0  0  0  0  0  0  0  0
   13.1630   18.7820    8.3150 C   0  0  1  0  0  0  0  0  0  0  0  0
   14.5250   18.5590    8.0310 O   0  0  0  0  0  0  0  0  0  0  0  0
   12.3980   17.5140    7.8290 C   0  0  1  0  0  0  0  0  0  0  0  0
   11.1370   17.6310    8.4710 O   0  0  0  0  0  0  0  0  0  0  0  0
   11.9820   17.6050    6.4530 N   0  0  0  0  0  0  0  0  0  0  0  0
   11.5850   16.5460    5.7070 C   0  0  0  0  0  0  0  0  0  0  0  0
   11.1800   17.0950    4.4280 C   0  0  0  0  0  0  0  0  0  0  0  0
   11.3440   18.4300    4.5230 N   0  0  0  0  0  0  0  0  0  0  0  0
   11.8340   18.7430    5.7490 C   0  0  0  0  0  0  0  0  0  0  0  0
   11.4690   15.2190    5.9450 N   0  0  0  0  0  0  0  0  0  0  0  0
   11.0320   14.3830    4.9560 C   0  0  0  0  0  0  0  0  0  0  0  0
   10.6280   14.8250    3.7440 N   0  0  0  0  0  0  0  0  0  0  0  0
   10.6490   16.1560    3.4120 C   0  0  0  0  0  0  0  0  0  0  0  0
   10.2740   16.6250    2.1830 N   0  0  0  0  0  0  0  0  0  0  0  0
  1  3  2  6  0  0  0
  1 21  1  0  0  0  0
  1  4  1  0  0  0  0
  1  2  1  0  0  0  0
  4  5  1  0  0  0  0
  5  7  2  6  0  0  0
  5  6  1  0  0  0  0
  5  8  1  0  0  0  0
  8  9  1  0  0  0  0
 10 17  1  1  0  0  0
 10 11  1  0  0  0  0
 10 16  1  0  0  0  0
 11 13  1  0  0  0  0
 11 12  1  1  0  0  0
 13 15  1  0  0  0  0
 13 14  1  1  0  0  0
 15 16  1  0  0  0  0
 16  9  1  1  0  0  0
 17 19  1  0  0  0  0
 18 19  2  0  0  0  0
 19 20  1  0  0  0  0
 21 22  1  0  0  0  0
 23 22  1  6  0  0  0
 23 29  1  0  0  0  0
 23 24  1  0  0  0  0
 24 26  1  0  0  0  0
 24 25  1  1  0  0  0
 26 28  1  0  0  0  0
 26 27  1  1  0  0  0
 28 30  1  6  0  0  0
 28 29  1  0  0  0  0
 30 31  1  0  0  0  0
 30 34  1  0  0  0  0
 31 32  2  0  0  0  0
 31 35  1  0  0  0  0
 32 38  1  0  0  0  0
 32 33  1  0  0  0  0
 33 34  2  0  0  0  0
 35 36  2  0  0  0  0
 36 37  1  0  0  0  0
 37 38  2  0  0  0  0
 38 39  1  0  0  0  0
M  END
>  <MODEL>
       2

>  <COMPND>
    UNNAMED

>  <AUTHOR>
    GENERATED BY OPEN BABEL 2.4.90

>  <MASTER>
        0    0    0    0    0    0    0    0   39    0   39    0

