__4buz_A_rec_4buz_ocz_lig_docked.pdb
 OpenBabel10191922523D

 17 19  0  0  1  0  0  0  0  0999 V2000
    2.8250   23.8080   12.3010 N   0  0  0  0  0  0  0  0  0  0  0  0
    3.1430   26.9040   10.5200 C   0  0  0  0  0  0  0  0  0  0  0  0
    1.9250   24.4450   14.4950 C   0  0  0  0  0  0  0  0  0  0  0  0
    1.5360   25.5090   15.3120 C   0  0  0  0  0  0  0  0  0  0  0  0
    2.3700   24.6630   13.2300 C   0  0  1  0  0  0  0  0  0  0  0  0
    1.0730   28.1380   15.8300 Cl  0  0  0  0  0  0  0  0  0  0  0  0
    2.4240   25.9080   12.7100 C   0  0  0  0  0  0  0  0  0  0  0  0
    2.0350   26.9590   13.4820 C   0  0  0  0  0  0  0  0  0  0  0  0
    2.8770   25.8550   11.4420 C   0  0  0  0  0  0  0  0  0  0  0  0
    3.1280   24.5320   11.1480 C   0  0  0  0  0  0  0  0  0  0  0  0
    1.5950   26.7900   14.8000 C   0  0  0  0  0  0  0  0  0  0  0  0
    3.1760   26.4360    9.1560 C   0  0  0  0  0  0  0  0  0  0  0  0
    3.6030   24.1200    9.8340 C   0  0  2  0  0  0  0  0  0  0  0  0
    4.1790   25.3100    9.0340 C   0  0  0  0  0  0  0  0  0  0  0  0
    2.9750   22.6430    8.0250 N   0  0  0  0  0  0  0  0  0  0  0  0
    1.3470   23.7270    9.1700 O   0  0  0  0  0  0  0  0  0  0  0  0
    2.5580   23.5040    9.0020 C   0  0  0  0  0  0  0  0  0  0  0  0
  1 10  2  0  0  0  0
  1  5  1  0  0  0  0
  2 12  1  0  0  0  0
  2  9  1  0  0  0  0
  3  4  2  0  0  0  0
  4 11  1  0  0  0  0
  5  3  1  1  0  0  0
  5  7  1  0  0  0  0
  6 11  1  0  0  0  0
  7  9  2  0  0  0  0
  7  8  1  0  0  0  0
  8 11  2  0  0  0  0
  9 10  1  0  0  0  0
 10 13  1  0  0  0  0
 12 14  1  0  0  0  0
 13 14  1  0  0  0  0
 13 17  1  6  0  0  0
 15 17  1  0  0  0  0
 16 17  2  0  0  0  0
M  END
>  <MODEL>
       1

>  <COMPND>
    UNNAMED

>  <AUTHOR>
    GENERATED BY OPEN BABEL 2.4.90

>  <MASTER>
        0    0    0    0    0    0    0    0   17    0   17    0

