__4bv2_A_rec_4bv2_ocz_lig_docked.pdb
 OpenBabel10191922483D

 17 19  0  0  1  0  0  0  0  0999 V2000
    2.2510   24.0320   11.8460 N   0  0  0  0  0  0  0  0  0  0  0  0
    3.6130   26.5790    9.9040 C   0  0  0  0  0  0  0  0  0  0  0  0
    1.7230   25.0670   14.0050 C   0  0  0  0  0  0  0  0  0  0  0  0
    1.7490   26.2100   14.7950 C   0  0  0  0  0  0  0  0  0  0  0  0
    2.1880   25.0380   12.7380 C   0  0  2  0  0  0  0  0  0  0  0  0
    2.3230   28.7810   15.1980 Cl  0  0  0  0  0  0  0  0  0  0  0  0
    2.6930   26.1430   12.1620 C   0  0  0  0  0  0  0  0  0  0  0  0
    2.7400   27.2970   12.8890 C   0  0  0  0  0  0  0  0  0  0  0  0
    3.0480   25.7970   10.8990 C   0  0  0  0  0  0  0  0  0  0  0  0
    2.7600   24.4800   10.6970 C   0  0  0  0  0  0  0  0  0  0  0  0
    2.2720   27.3510   14.2220 C   0  0  0  0  0  0  0  0  0  0  0  0
    3.6320   25.8780    8.5550 C   0  0  0  0  0  0  0  0  0  0  0  0
    3.0080   23.7420    9.4890 C   0  0  2  0  0  0  0  0  0  0  0  0
    4.0460   24.4300    8.6620 C   0  0  0  0  0  0  0  0  0  0  0  0
    2.1260   22.7770    7.5820 N   0  0  0  0  0  0  0  0  0  0  0  0
    0.7330   23.8350    9.0090 O   0  0  0  0  0  0  0  0  0  0  0  0
    1.8670   23.4670    8.6940 C   0  0  0  0  0  0  0  0  0  0  0  0
  1 10  2  0  0  0  0
  1  5  1  0  0  0  0
  2 12  1  0  0  0  0
  2  9  1  0  0  0  0
  3  4  2  0  0  0  0
  4 11  1  0  0  0  0
  5  3  1  6  0  0  0
  5  7  1  0  0  0  0
  6 11  1  0  0  0  0
  7  9  2  0  0  0  0
  7  8  1  0  0  0  0
  8 11  2  0  0  0  0
  9 10  1  0  0  0  0
 10 13  1  0  0  0  0
 12 14  1  0  0  0  0
 13 14  1  0  0  0  0
 13 17  1  6  0  0  0
 15 17  1  0  0  0  0
 16 17  2  0  0  0  0
M  END
>  <MODEL>
       1

>  <COMPND>
    UNNAMED

>  <AUTHOR>
    GENERATED BY OPEN BABEL 2.4.90

>  <MASTER>
        0    0    0    0    0    0    0    0   17    0   17    0

