__1xo2_B_rec_2euf_lqq_lig_min.pdb
 OpenBabel10181902563D

 33 37  0  0  1  0  0  0  0  0999 V2000
   32.0980   61.1310   35.4050 C   0  0  0  0  0  0  0  0  0  0  0  0
   33.1480   61.6340   34.6310 C   0  0  0  0  0  0  0  0  0  0  0  0
   33.5240   63.0900   34.6100 C   0  0  0  0  0  0  0  0  0  0  0  0
   34.0450   60.6670   33.9650 C   0  0  0  0  0  0  0  0  0  0  0  0
   35.0960   61.1030   33.0470 C   0  0  0  0  0  0  0  0  0  0  0  0
   35.8250   60.1890   32.4010 N   0  0  0  0  0  0  0  0  0  0  0  0
   35.5040   58.8790   32.4280 C   0  0  0  0  0  0  0  0  0  0  0  0
   34.4390   58.4350   33.1720 N   0  0  0  0  0  0  0  0  0  0  0  0
   33.6310   59.2720   33.8820 C   0  0  1  0  0  0  0  0  0  0  0  0
   32.6000   58.8340   34.6510 N   0  0  0  0  0  0  0  0  0  0  0  0
   31.8070   59.7640   35.4020 C   0  0  0  0  0  0  0  0  0  0  0  0
   30.8250   59.3810   36.0910 O   0  0  0  0  0  0  0  0  0  0  0  0
   32.2680   57.3970   34.6430 C   0  0  0  0  0  0  0  0  0  0  0  0
   31.7180   56.8460   35.9530 C   0  0  0  0  0  0  0  0  0  0  0  0
   30.5550   55.9180   35.5900 C   0  0  0  0  0  0  0  0  0  0  0  0
   30.2980   56.0180   34.0760 C   0  0  0  0  0  0  0  0  0  0  0  0
   31.2060   57.1370   33.5690 C   0  0  0  0  0  0  0  0  0  0  0  0
   31.6390   62.5130   37.2380 O   0  0  0  0  0  0  0  0  0  0  0  0
   31.2100   62.0340   36.2110 C   0  0  0  0  0  0  0  0  0  0  0  0
   29.8150   62.2910   35.7280 C   0  0  0  0  0  0  0  0  0  0  0  0
   36.3120   58.0730   31.6810 N   0  0  0  0  0  0  0  0  0  0  0  0
   36.0890   56.8000   31.2720 C   0  0  0  0  0  0  0  0  0  0  0  0
   36.6810   56.3820   30.1280 N   0  0  0  0  0  0  0  0  0  0  0  0
   36.5030   55.1360   29.6750 C   0  0  0  0  0  0  0  0  0  0  0  0
   35.7040   54.2320   30.3750 C   0  0  0  0  0  0  0  0  0  0  0  0
   35.0920   54.6450   31.5530 C   0  0  0  0  0  0  0  0  0  0  0  0
   35.2870   55.9350   32.0070 C   0  0  0  0  0  0  0  0  0  0  0  0
   35.5110   52.9140   29.9030 N   0  0  0  0  0  0  0  0  0  0  0  0
   35.3020   52.9380   28.4350 C   0  0  0  0  0  0  0  0  0  0  0  0
   35.1500   51.5220   27.8860 C   0  0  0  0  0  0  0  0  0  0  0  0
   34.1200   50.7980   28.6130 N   0  0  0  0  0  0  0  0  0  0  0  0
   34.0130   50.8920   30.0660 C   0  0  0  0  0  0  0  0  0  0  0  0
   34.3890   52.2630   30.6320 C   0  0  0  0  0  0  0  0  0  0  0  0
  1  2  2  0  0  0  0
  1 11  1  0  0  0  0
  1 19  1  0  0  0  0
  2  4  1  0  0  0  0
  2  3  1  0  0  0  0
  4  5  2  0  0  0  0
  5  6  1  0  0  0  0
  6  7  2  0  0  0  0
  7 21  1  0  0  0  0
  7  8  2  0  0  0  0
  8  9  1  0  0  0  0
  9  4  1  1  0  0  0
  9 10  1  0  0  0  0
 10 13  1  0  0  0  0
 10 11  1  0  0  0  0
 11 12  2  0  0  0  0
 13 17  1  0  0  0  0
 13 14  1  0  0  0  0
 14 15  1  0  0  0  0
 15 16  1  0  0  0  0
 16 17  1  0  0  0  0
 18 19  2  0  0  0  0
 19 20  1  0  0  0  0
 21 22  1  0  0  0  0
 22 23  2  0  0  0  0
 22 27  1  0  0  0  0
 23 24  1  0  0  0  0
 24 25  2  0  0  0  0
 25 28  1  0  0  0  0
 25 26  1  0  0  0  0
 26 27  2  0  0  0  0
 28 29  1  0  0  0  0
 28 33  1  0  0  0  0
 29 30  1  0  0  0  0
 30 31  1  0  0  0  0
 31 32  1  0  0  0  0
 32 33  1  0  0  0  0
M  END
>  <COMPND>
    UNNAMED

>  <AUTHOR>
    GENERATED BY OPEN BABEL 2.4.90

>  <MASTER>
        0    0    0    0    0    0    0    0   33    0   33    0

