__3nux_A_rec_3nux_3nv_lig_min.pdb
 OpenBabel10181903263D

 28 31  0  0  1  0  0  0  0  0999 V2000
   35.2440   60.6210   32.7880 N   0  0  0  0  0  0  0  0  0  0  0  0
   33.4850   59.2990   33.6690 N   0  0  0  0  0  0  0  0  0  0  0  0
   32.9680   60.3530   34.3780 C   0  0  2  0  0  0  0  0  0  0  0  0
   33.6220   61.6130   34.3060 C   0  0  0  0  0  0  0  0  0  0  0  0
   34.7570   61.6830   33.4730 C   0  0  0  0  0  0  0  0  0  0  0  0
   34.5780   59.4870   32.8950 C   0  0  0  0  0  0  0  0  0  0  0  0
   30.0250   62.1810   34.4270 Cl  0  0  0  0  0  0  0  0  0  0  0  0
   29.7080   60.1990   36.1530 N   0  0  0  0  0  0  0  0  0  0  0  0
   30.2590   59.1210   36.7140 N   0  0  0  0  0  0  0  0  0  0  0  0
   31.7300   60.0840   35.2080 C   0  0  0  0  0  0  0  0  0  0  0  0
   30.5520   60.7900   35.2670 C   0  0  0  0  0  0  0  0  0  0  0  0
   31.4750   59.0240   36.1770 C   0  0  0  0  0  0  0  0  0  0  0  0
   32.3280   57.8480   36.6420 C   0  0  0  0  0  0  0  0  0  0  0  0
   33.5100   58.3310   37.4990 C   0  0  0  0  0  0  0  0  0  0  0  0
   31.4640   56.8440   37.4160 C   0  0  0  0  0  0  0  0  0  0  0  0
   35.0960   58.4340   32.1930 N   0  0  0  0  0  0  0  0  0  0  0  0
   35.1820   56.3930   31.2120 N   0  0  0  0  0  0  0  0  0  0  0  0
   35.2020   55.0210   31.2640 C   0  0  0  0  0  0  0  0  0  0  0  0
   35.1160   54.2570   32.4830 C   0  0  0  0  0  0  0  0  0  0  0  0
   35.0520   55.0380   33.6860 C   0  0  0  0  0  0  0  0  0  0  0  0
   35.0330   56.4620   33.6310 C   0  0  0  0  0  0  0  0  0  0  0  0
   35.1100   57.1100   32.3670 C   0  0  0  0  0  0  0  0  0  0  0  0
   34.5080   52.0370   33.5750 C   0  0  0  0  0  0  0  0  0  0  0  0
   35.1320   52.8690   32.4990 N   0  0  0  0  0  0  0  0  0  0  0  0
   35.4470   50.8860   34.0770 C   0  0  0  0  0  0  0  0  0  0  0  0
   35.7930   49.9960   32.9540 N   0  0  0  0  0  0  0  0  0  0  0  0
   36.5590   50.7820   31.9540 C   0  0  0  0  0  0  0  0  0  0  0  0
   35.7510   52.0200   31.4310 C   0  0  0  0  0  0  0  0  0  0  0  0
  1  6  2  0  0  0  0
  1  5  1  0  0  0  0
  2  6  2  0  0  0  0
  2  3  1  0  0  0  0
  3  4  1  0  0  0  0
  3 10  1  1  0  0  0
  4  5  2  0  0  0  0
  6 16  1  0  0  0  0
  7 11  1  0  0  0  0
  8 11  2  0  0  0  0
  8  9  1  0  0  0  0
  9 12  1  0  0  0  0
 10 11  1  0  0  0  0
 10 12  2  0  0  0  0
 12 13  1  0  0  0  0
 13 15  1  0  0  0  0
 13 14  1  0  0  0  0
 16 22  1  0  0  0  0
 17 18  1  0  0  0  0
 17 22  2  0  0  0  0
 18 19  2  0  0  0  0
 19 24  1  0  0  0  0
 19 20  1  0  0  0  0
 20 21  2  0  0  0  0
 21 22  1  0  0  0  0
 23 24  1  0  0  0  0
 23 25  1  0  0  0  0
 24 28  1  0  0  0  0
 25 26  1  0  0  0  0
 26 27  1  0  0  0  0
 27 28  1  0  0  0  0
M  END
>  <COMPND>
    UNNAMED

>  <AUTHOR>
    GENERATED BY OPEN BABEL 2.4.90

>  <MASTER>
        0    0    0    0    0    0    0    0   28    0   28    0

