__4ez5_A_rec_4ez5_0rs_lig_docked.pdb
 OpenBabel10181903463D

 36 41  0  0  1  0  0  0  0  0999 V2000
   35.1780   56.6510   33.6900 C   0  0  0  0  0  0  0  0  0  0  0  0
   34.8210   58.6230   32.9310 C   0  0  0  0  0  0  0  0  0  0  0  0
   35.5080   56.6090   32.3120 C   0  0  0  0  0  0  0  0  0  0  0  0
   36.1010   54.3970   32.3350 C   0  0  0  0  0  0  0  0  0  0  0  0
   35.7980   54.3180   33.7150 C   0  0  0  0  0  0  0  0  0  0  0  0
   35.3340   55.4530   34.4110 C   0  0  0  0  0  0  0  0  0  0  0  0
   34.7500   57.9070   34.0650 N   0  0  0  0  0  0  0  0  0  0  0  0
   35.2630   57.8970   31.8720 N   0  0  0  0  0  0  0  0  0  0  0  0
   35.9610   55.5350   31.6060 N   0  0  0  0  0  0  0  0  0  0  0  0
   35.9590   50.6890   30.5530 C   0  0  1  0  0  0  0  0  0  0  0  0
   35.6330   52.0180   29.8350 C   0  0  0  0  0  0  0  0  0  0  0  0
   36.6130   53.1340   30.2420 C   0  0  0  0  0  0  0  0  0  0  0  0
   36.5590   53.2930   31.6940 N   0  0  0  0  0  0  0  0  0  0  0  0
   37.0360   52.0870   32.3700 C   0  0  0  0  0  0  0  0  0  0  0  0
   36.1100   50.8960   32.0780 C   0  0  0  0  0  0  0  0  0  0  0  0
   33.9880   50.1160   29.2580 C   0  0  0  0  0  0  0  0  0  0  0  0
   35.6180   48.4040   29.6420 C   0  0  0  0  0  0  0  0  0  0  0  0
   35.0100   49.6250   30.1780 N   0  0  0  0  0  0  0  0  0  0  0  0
   34.8280   60.7280   31.8050 O   0  0  0  0  0  0  0  0  0  0  0  0
   34.4570   60.0930   32.7850 C   0  0  0  0  0  0  0  0  0  0  0  0
   33.6420   60.7680   33.8370 C   0  0  0  0  0  0  0  0  0  0  0  0
   33.9070   62.1030   34.1770 C   0  0  0  0  0  0  0  0  0  0  0  0
   33.1210   62.7000   35.1690 C   0  0  0  0  0  0  0  0  0  0  0  0
   31.8580   60.7890   35.5190 C   0  0  0  0  0  0  0  0  0  0  0  0
   32.5860   60.1270   34.5220 C   0  0  0  0  0  0  0  0  0  0  0  0
   32.1220   62.0660   35.8190 N   0  0  0  0  0  0  0  0  0  0  0  0
   30.7470   60.1530   36.2550 C   0  0  0  0  0  0  0  0  0  0  0  0
   29.8070   61.0070   36.8860 C   0  0  0  0  0  0  0  0  0  0  0  0
   28.5500   59.2630   37.6860 C   0  0  0  0  0  0  0  0  0  0  0  0
   29.4040   58.3020   37.1160 C   0  0  0  0  0  0  0  0  0  0  0  0
   29.1500   56.9260   37.2740 C   0  0  0  0  0  0  0  0  0  0  0  0
   30.0170   55.9800   36.6890 C   0  0  0  0  0  0  0  0  0  0  0  0
   31.1430   56.3890   35.9480 C   0  0  0  0  0  0  0  0  0  0  0  0
   31.3920   57.7660   35.8100 C   0  0  0  0  0  0  0  0  0  0  0  0
   30.5310   58.7480   36.3800 C   0  0  0  0  0  0  0  0  0  0  0  0
   28.7340   60.5890   37.5810 N   0  0  0  0  0  0  0  0  0  0  0  0
  1  3  1  0  0  0  0
  1  7  1  0  0  0  0
  1  6  2  0  0  0  0
  2  8  1  0  0  0  0
  2 20  1  0  0  0  0
  2  7  2  0  0  0  0
  3  9  1  0  0  0  0
  3  8  2  0  0  0  0
  4  9  2  0  0  0  0
  4 13  1  0  0  0  0
  4  5  1  0  0  0  0
  5  6  1  0  0  0  0
 10 18  1  1  0  0  0
 10 11  1  0  0  0  0
 10 15  1  0  0  0  0
 11 12  1  0  0  0  0
 12 13  1  0  0  0  0
 13 14  1  0  0  0  0
 14 15  1  0  0  0  0
 16 18  1  0  0  0  0
 17 18  1  0  0  0  0
 19 20  2  0  0  0  0
 20 21  1  0  0  0  0
 21 22  2  0  0  0  0
 21 25  1  0  0  0  0
 22 23  1  0  0  0  0
 23 26  2  0  0  0  0
 24 25  2  0  0  0  0
 24 26  1  0  0  0  0
 24 27  1  0  0  0  0
 27 28  2  0  0  0  0
 27 35  1  0  0  0  0
 28 36  1  0  0  0  0
 29 36  2  0  0  0  0
 29 30  1  0  0  0  0
 30 35  2  0  0  0  0
 30 31  1  0  0  0  0
 31 32  2  0  0  0  0
 32 33  1  0  0  0  0
 33 34  2  0  0  0  0
 34 35  1  0  0  0  0
M  END
>  <MODEL>
       9

>  <COMPND>
    UNNAMED

>  <AUTHOR>
    GENERATED BY OPEN BABEL 2.4.90

>  <MASTER>
        0    0    0    0    0    0    0    0   36    0   36    0

