__4ez5_A_rec_4ez5_0rs_lig_min.pdb
 OpenBabel10181903003D

 36 41  0  0  1  0  0  0  0  0999 V2000
   35.0370   56.7690   33.7670 C   0  0  0  0  0  0  0  0  0  0  0  0
   34.7650   58.7750   33.0640 C   0  0  0  0  0  0  0  0  0  0  0  0
   35.4800   56.7790   32.4190 C   0  0  0  0  0  0  0  0  0  0  0  0
   36.0450   54.5590   32.3980 C   0  0  0  0  0  0  0  0  0  0  0  0
   35.6280   54.4280   33.7450 C   0  0  0  0  0  0  0  0  0  0  0  0
   35.1200   55.5400   34.4470 C   0  0  0  0  0  0  0  0  0  0  0  0
   34.5930   58.0140   34.1570 N   0  0  0  0  0  0  0  0  0  0  0  0
   35.2870   58.0870   32.0160 N   0  0  0  0  0  0  0  0  0  0  0  0
   35.9780   55.7280   31.7090 N   0  0  0  0  0  0  0  0  0  0  0  0
   36.0650   50.8130   30.6930 C   0  0  1  0  0  0  0  0  0  0  0  0
   35.6060   52.1000   29.9720 C   0  0  0  0  0  0  0  0  0  0  0  0
   36.5260   53.2900   30.3020 C   0  0  0  0  0  0  0  0  0  0  0  0
   36.5430   53.4760   31.7520 N   0  0  0  0  0  0  0  0  0  0  0  0
   37.1410   52.3220   32.4200 C   0  0  0  0  0  0  0  0  0  0  0  0
   36.2860   51.0630   32.2030 C   0  0  0  0  0  0  0  0  0  0  0  0
   35.3710   48.5750   31.3280 C   0  0  0  0  0  0  0  0  0  0  0  0
   33.7470   50.0070   30.3050 C   0  0  0  0  0  0  0  0  0  0  0  0
   35.1730   49.6780   30.3920 N   0  0  0  0  0  0  0  0  0  0  0  0
   34.8740   60.9200   32.0220 O   0  0  0  0  0  0  0  0  0  0  0  0
   34.4310   60.2550   32.9500 C   0  0  0  0  0  0  0  0  0  0  0  0
   33.5560   60.9020   33.9720 C   0  0  0  0  0  0  0  0  0  0  0  0
   33.7440   62.2550   34.2970 C   0  0  0  0  0  0  0  0  0  0  0  0
   32.9040   62.8250   35.2600 C   0  0  0  0  0  0  0  0  0  0  0  0
   31.7310   60.8560   35.6080 C   0  0  0  0  0  0  0  0  0  0  0  0
   32.5170   60.2190   34.6400 C   0  0  0  0  0  0  0  0  0  0  0  0
   31.9220   62.1500   35.8950 N   0  0  0  0  0  0  0  0  0  0  0  0
   30.6350   60.1760   36.3260 C   0  0  0  0  0  0  0  0  0  0  0  0
   29.6720   60.9900   36.9740 C   0  0  0  0  0  0  0  0  0  0  0  0
   28.4590   59.1960   37.7300 C   0  0  0  0  0  0  0  0  0  0  0  0
   29.3380   58.2710   37.1400 C   0  0  0  0  0  0  0  0  0  0  0  0
   29.1190   56.8850   37.2650 C   0  0  0  0  0  0  0  0  0  0  0  0
   30.0120   55.9770   36.6610 C   0  0  0  0  0  0  0  0  0  0  0  0
   31.1280   56.4310   35.9330 C   0  0  0  0  0  0  0  0  0  0  0  0
   31.3420   57.8160   35.8270 C   0  0  0  0  0  0  0  0  0  0  0  0
   30.4550   58.7630   36.4180 C   0  0  0  0  0  0  0  0  0  0  0  0
   28.6090   60.5290   37.6570 N   0  0  0  0  0  0  0  0  0  0  0  0
  1  3  1  0  0  0  0
  1  7  1  0  0  0  0
  1  6  2  0  0  0  0
  2  8  1  0  0  0  0
  2 20  1  0  0  0  0
  2  7  2  0  0  0  0
  3  9  1  0  0  0  0
  3  8  2  0  0  0  0
  4  9  2  0  0  0  0
  4 13  1  0  0  0  0
  4  5  1  0  0  0  0
  5  6  1  0  0  0  0
 10 18  1  1  0  0  0
 10 11  1  0  0  0  0
 10 15  1  0  0  0  0
 11 12  1  0  0  0  0
 12 13  1  0  0  0  0
 13 14  1  0  0  0  0
 14 15  1  0  0  0  0
 16 18  1  0  0  0  0
 17 18  1  0  0  0  0
 19 20  2  0  0  0  0
 20 21  1  0  0  0  0
 21 22  2  0  0  0  0
 21 25  1  0  0  0  0
 22 23  1  0  0  0  0
 23 26  2  0  0  0  0
 24 25  2  0  0  0  0
 24 26  1  0  0  0  0
 24 27  1  0  0  0  0
 27 28  2  0  0  0  0
 27 35  1  0  0  0  0
 28 36  1  0  0  0  0
 29 36  2  0  0  0  0
 29 30  1  0  0  0  0
 30 35  2  0  0  0  0
 30 31  1  0  0  0  0
 31 32  2  0  0  0  0
 32 33  1  0  0  0  0
 33 34  2  0  0  0  0
 34 35  1  0  0  0  0
M  END
>  <COMPND>
    UNNAMED

>  <AUTHOR>
    GENERATED BY OPEN BABEL 2.4.90

>  <MASTER>
        0    0    0    0    0    0    0    0   36    0   36    0

