__5l2s_A_rec_5l2t_6zz_lig_docked.pdb
 OpenBabel10181904243D

 32 36  0  0  0  0  0  0  0  0999 V2000
   34.8730   58.8210   32.9680 C   0  0  0  0  0  0  0  0  0  0  0  0
   34.9740   61.0770   32.7180 C   0  0  0  0  0  0  0  0  0  0  0  0
   34.0510   61.3090   33.7290 C   0  0  0  0  0  0  0  0  0  0  0  0
   33.5750   60.1060   34.2930 C   0  0  0  0  0  0  0  0  0  0  0  0
   33.4250   62.3630   34.4220 C   0  0  0  0  0  0  0  0  0  0  0  0
   32.6010   61.8260   35.3680 C   0  0  0  0  0  0  0  0  0  0  0  0
   35.3820   59.8720   32.3040 N   0  0  0  0  0  0  0  0  0  0  0  0
   33.9420   58.8630   33.9450 N   0  0  0  0  0  0  0  0  0  0  0  0
   32.6790   60.4140   35.3050 N   0  0  0  0  0  0  0  0  0  0  0  0
   31.7420   62.5530   36.3570 C   0  0  0  0  0  0  0  0  0  0  0  0
   29.5080   63.0750   37.2260 C   0  0  0  0  0  0  0  0  0  0  0  0
   29.7550   61.5360   35.3210 C   0  0  0  0  0  0  0  0  0  0  0  0
   30.4160   62.3890   36.3030 N   0  0  0  0  0  0  0  0  0  0  0  0
   32.2870   63.3370   37.1340 O   0  0  0  0  0  0  0  0  0  0  0  0
   32.4550   57.4420   37.5130 C   0  0  0  0  0  0  0  0  0  0  0  0
   31.6270   57.0660   36.3370 C   0  0  0  0  0  0  0  0  0  0  0  0
   33.1360   58.7340   37.1470 C   0  0  0  0  0  0  0  0  0  0  0  0
   31.2070   58.3840   35.6630 C   0  0  0  0  0  0  0  0  0  0  0  0
   32.1000   59.4570   36.2860 C   0  0  0  0  0  0  0  0  0  0  0  0
   35.4850   57.6350   32.6710 N   0  0  0  0  0  0  0  0  0  0  0  0
   35.1820   54.0990   32.6380 C   0  0  0  0  0  0  0  0  0  0  0  0
   35.4590   55.3500   32.2390 N   0  0  0  0  0  0  0  0  0  0  0  0
   34.5080   54.8230   34.7960 C   0  0  0  0  0  0  0  0  0  0  0  0
   34.6950   53.7760   33.9050 C   0  0  0  0  0  0  0  0  0  0  0  0
   35.2490   56.3470   33.1110 C   0  0  0  0  0  0  0  0  0  0  0  0
   34.7850   56.1210   34.4120 C   0  0  0  0  0  0  0  0  0  0  0  0
   33.0450   52.1600   34.7740 C   0  0  0  0  0  0  0  0  0  0  0  0
   35.0400   51.3180   33.6360 C   0  0  0  0  0  0  0  0  0  0  0  0
   33.1000   51.0030   35.7450 C   0  0  0  0  0  0  0  0  0  0  0  0
   35.0990   50.1420   34.5840 C   0  0  0  0  0  0  0  0  0  0  0  0
   34.3890   52.4650   34.2780 N   0  0  0  0  0  0  0  0  0  0  0  0
   33.7420   49.8220   35.1040 N   0  0  0  0  0  0  0  0  0  0  0  0
  1  7  2  0  0  0  0
  1 20  1  0  0  0  0
  1  8  2  0  0  0  0
  2  7  1  0  0  0  0
  2  3  1  0  0  0  0
  3  4  2  0  0  0  0
  3  5  1  0  0  0  0
  4  8  1  0  0  0  0
  4  9  1  0  0  0  0
  5  6  2  0  0  0  0
  6  9  1  0  0  0  0
  6 10  1  0  0  0  0
  9 19  1  0  0  0  0
 10 13  1  0  0  0  0
 10 14  2  0  0  0  0
 11 13  1  0  0  0  0
 12 13  1  0  0  0  0
 15 16  1  0  0  0  0
 15 17  1  0  0  0  0
 16 18  1  0  0  0  0
 17 19  1  0  0  0  0
 18 19  1  0  0  0  0
 20 25  1  0  0  0  0
 21 22  1  0  0  0  0
 21 24  2  0  0  0  0
 22 25  2  0  0  0  0
 23 24  1  0  0  0  0
 23 26  2  0  0  0  0
 24 31  1  0  0  0  0
 25 26  1  0  0  0  0
 27 31  1  0  0  0  0
 27 29  1  0  0  0  0
 28 31  1  0  0  0  0
 28 30  1  0  0  0  0
 29 32  1  0  0  0  0
 30 32  1  0  0  0  0
M  END
>  <MODEL>
       1

>  <COMPND>
    UNNAMED

>  <AUTHOR>
    GENERATED BY OPEN BABEL 2.4.90

>  <MASTER>
        0    0    0    0    0    0    0    0   32    0   32    0

