__5l2s_A_rec_4aua_4au_lig_min.pdb
 OpenBabel10181903343D

 16 18  0  0  0  0  0  0  0  0999 V2000
   35.1040   54.2090   34.3490 C   0  0  0  0  0  0  0  0  0  0  0  0
   34.5470   55.4090   34.7580 C   0  0  0  0  0  0  0  0  0  0  0  0
   34.7440   56.5360   33.9810 C   0  0  0  0  0  0  0  0  0  0  0  0
   35.4950   56.4520   32.8190 C   0  0  0  0  0  0  0  0  0  0  0  0
   36.0650   55.2580   32.4180 C   0  0  0  0  0  0  0  0  0  0  0  0
   35.8620   54.1350   33.1960 C   0  0  0  0  0  0  0  0  0  0  0  0
   34.8100   58.5250   33.0910 C   0  0  0  0  0  0  0  0  0  0  0  0
   34.2940   57.8570   34.1630 N   0  0  0  0  0  0  0  0  0  0  0  0
   35.5330   57.7020   32.2720 N   0  0  0  0  0  0  0  0  0  0  0  0
   34.6410   59.9430   32.7670 C   0  0  0  0  0  0  0  0  0  0  0  0
   35.2120   60.3690   31.7910 O   0  0  0  0  0  0  0  0  0  0  0  0
   33.7990   60.8010   33.6210 C   0  0  0  0  0  0  0  0  0  0  0  0
   32.5260   60.6380   34.1700 C   0  0  0  0  0  0  0  0  0  0  0  0
   32.2390   61.7790   34.9100 C   0  0  0  0  0  0  0  0  0  0  0  0
   33.3430   62.6300   34.8010 C   0  0  0  0  0  0  0  0  0  0  0  0
   34.2750   62.0250   34.0250 N   0  0  0  0  0  0  0  0  0  0  0  0
  1  6  2  0  0  0  0
  1  2  1  0  0  0  0
  2  3  2  0  0  0  0
  3  4  1  0  0  0  0
  3  8  1  0  0  0  0
  4  5  2  0  0  0  0
  4  9  1  0  0  0  0
  5  6  1  0  0  0  0
  7  9  1  0  0  0  0
  7 10  1  0  0  0  0
  7  8  2  0  0  0  0
 10 11  2  0  0  0  0
 10 12  1  0  0  0  0
 12 16  2  0  0  0  0
 12 13  1  0  0  0  0
 13 14  1  0  0  0  0
 14 15  2  0  0  0  0
 15 16  1  0  0  0  0
M  END
>  <COMPND>
    UNNAMED

>  <AUTHOR>
    GENERATED BY OPEN BABEL 2.4.90

>  <MASTER>
        0    0    0    0    0    0    0    0   16    0   16    0

