__1vag_A_rec_1vag_arr_lig_min.pdb
 OpenBabel10201920403D

 25 27  0  0  0  0  0  0  0  0999 V2000
   11.0910    0.7840   23.7480 C   0  0  0  0  0  0  0  0  0  0  0  0
   11.2940    2.0740   24.3800 C   0  0  0  0  0  0  0  0  0  0  0  0
   10.2040    2.9380   24.6370 C   0  0  0  0  0  0  0  0  0  0  0  0
    8.8870    2.5510   24.2810 C   0  0  0  0  0  0  0  0  0  0  0  0
    8.6950    1.2820   23.6580 C   0  0  0  0  0  0  0  0  0  0  0  0
    9.7680    0.3920   23.3840 C   0  0  0  0  0  0  0  0  0  0  0  0
   12.1410   -0.0830   23.4740 N   0  0  0  0  0  0  0  0  0  0  0  0
   13.4110    0.2500   23.0840 C   0  0  0  0  0  0  0  0  0  0  0  0
   14.3770   -0.4090   23.6560 N   0  0  0  0  0  0  0  0  0  0  0  0
   14.8620    2.0240   22.0430 S   0  0  0  0  0  0  0  0  0  0  0  0
   14.5730    2.7520   20.7970 C   0  0  0  0  0  0  0  0  0  0  0  0
   13.4360    2.3750   20.2300 C   0  0  0  0  0  0  0  0  0  0  0  0
   12.8870    1.4300   20.9800 C   0  0  0  0  0  0  0  0  0  0  0  0
   13.6740    1.1560   22.0610 C   0  0  0  0  0  0  0  0  0  0  0  0
    7.7190    3.4650   24.5450 C   0  0  0  0  0  0  0  0  0  0  0  0
    7.1490    3.2840   25.9530 C   0  0  0  0  0  0  0  0  0  0  0  0
    5.9310    4.0420   26.0630 N   0  0  0  0  0  0  0  0  0  0  0  0
    5.3620    4.0450   27.3950 C   0  0  0  0  0  0  0  0  0  0  0  0
    4.3930    5.1990   27.5870 C   0  0  0  0  0  0  0  0  0  0  0  0
    3.5400    5.6300   26.5120 C   0  0  0  0  0  0  0  0  0  0  0  0
    2.6310    6.7130   26.6950 C   0  0  0  0  0  0  0  0  0  0  0  0
    2.5600    7.3770   27.9550 C   0  0  0  0  0  0  0  0  0  0  0  0
    3.4010    6.9570   29.0310 C   0  0  0  0  0  0  0  0  0  0  0  0
    4.3080    5.8780   28.8450 C   0  0  0  0  0  0  0  0  0  0  0  0
    1.6140    7.2200   25.3930 Cl  0  0  0  0  0  0  0  0  0  0  0  0
  1  7  1  0  0  0  0
  1  6  2  0  0  0  0
  1  2  1  0  0  0  0
  2  3  2  0  0  0  0
  3  4  1  0  0  0  0
  4  5  2  0  0  0  0
  4 15  1  0  0  0  0
  5  6  1  0  0  0  0
  7  8  1  0  0  0  0
  8 14  1  0  0  0  0
  8  9  2  0  0  0  0
 10 11  1  0  0  0  0
 10 14  1  0  0  0  0
 11 12  2  0  0  0  0
 12 13  1  0  0  0  0
 13 14  2  0  0  0  0
 15 16  1  0  0  0  0
 16 17  1  0  0  0  0
 17 18  1  0  0  0  0
 18 19  1  0  0  0  0
 19 20  2  0  0  0  0
 19 24  1  0  0  0  0
 20 21  1  0  0  0  0
 21 25  1  0  0  0  0
 21 22  2  0  0  0  0
 22 23  1  0  0  0  0
 23 24  2  0  0  0  0
M  END
>  <COMPND>
    UNNAMED

>  <AUTHOR>
    GENERATED BY OPEN BABEL 2.4.90

>  <MASTER>
        0    0    0    0    0    0    0    0   25    0   25    0

