__1vag_A_rec_5fw0_w30_lig_min.pdb
 OpenBabel10201911593D

 22 23  0  0  0  0  0  0  0  0999 V2000
   10.1780    0.6690   23.9710 C   0  0  0  0  0  0  0  0  0  0  0  0
    6.3660    1.0800   25.8660 C   0  0  0  0  0  0  0  0  0  0  0  0
    7.0120    2.2250   25.4000 C   0  0  0  0  0  0  0  0  0  0  0  0
    8.2560    2.1190   24.7810 C   0  0  0  0  0  0  0  0  0  0  0  0
    8.8260    0.8570   24.6320 C   0  0  0  0  0  0  0  0  0  0  0  0
    8.1340   -0.2460   25.1270 C   0  0  0  0  0  0  0  0  0  0  0  0
    6.9380   -0.1210   25.7200 N   0  0  0  0  0  0  0  0  0  0  0  0
    6.4190    3.4890   25.5480 N   0  0  0  0  0  0  0  0  0  0  0  0
    5.6700    3.8120   26.7570 C   0  0  0  0  0  0  0  0  0  0  0  0
    6.5580    4.4670   24.4740 C   0  0  0  0  0  0  0  0  0  0  0  0
    5.2710    4.4480   23.6630 C   0  0  0  0  0  0  0  0  0  0  0  0
    5.5050    3.6910   22.4770 O   0  0  0  0  0  0  0  0  0  0  0  0
    4.8110    2.4420   22.4560 C   0  0  0  0  0  0  0  0  0  0  0  0
   11.2530    1.5040   24.6650 C   0  0  0  0  0  0  0  0  0  0  0  0
   13.7550    2.2510   20.3470 C   0  0  0  0  0  0  0  0  0  0  0  0
   12.5340    1.4100   23.8540 C   0  0  0  0  0  0  0  0  0  0  0  0
   12.5640    1.8590   22.5330 C   0  0  0  0  0  0  0  0  0  0  0  0
   13.7380    1.7630   21.7910 C   0  0  0  0  0  0  0  0  0  0  0  0
   14.8700    1.2070   22.3890 C   0  0  0  0  0  0  0  0  0  0  0  0
   14.8080    0.7700   23.7230 C   0  0  0  0  0  0  0  0  0  0  0  0
   15.8830    0.2170   24.3480 N   0  0  0  0  0  0  0  0  0  0  0  0
   13.6480    0.8770   24.4100 N   0  0  0  0  0  0  0  0  0  0  0  0
  1  5  1  0  0  0  0
  1 14  1  0  0  0  0
  2  7  2  0  0  0  0
  2  3  1  0  0  0  0
  3  4  2  0  0  0  0
  3  8  1  0  0  0  0
  4  5  1  0  0  0  0
  5  6  2  0  0  0  0
  6  7  1  0  0  0  0
  8 10  1  0  0  0  0
  8  9  1  0  0  0  0
 10 11  1  0  0  0  0
 11 12  1  0  0  0  0
 12 13  1  0  0  0  0
 14 16  1  0  0  0  0
 15 18  1  0  0  0  0
 16 17  2  0  0  0  0
 16 22  1  0  0  0  0
 17 18  1  0  0  0  0
 18 19  2  0  0  0  0
 19 20  1  0  0  0  0
 20 21  1  0  0  0  0
 20 22  2  0  0  0  0
M  END
>  <COMPND>
    UNNAMED

>  <AUTHOR>
    GENERATED BY OPEN BABEL 2.4.90

>  <MASTER>
        0    0    0    0    0    0    0    0   22    0   22    0

