__2hx4_A_rec_3rqj_h4b_lig_docked.pdb
 OpenBabel10201920293D

 17 18  0  0  1  0  0  0  0  0999 V2000
    9.7190    2.4740   33.9710 N   0  0  0  0  0  4  0  0  0  0  0  0
    9.9630    2.0720   32.7090 C   0  0  0  0  0  0  0  0  0  0  0  0
   11.2530    1.9350   32.2640 N   0  0  0  0  0  0  0  0  0  0  0  0
    8.9420    1.8150   31.8670 N   0  0  0  0  0  0  0  0  0  0  0  0
    7.6650    1.9520   32.2850 C   0  0  0  0  0  0  0  0  0  0  0  0
    6.7520    1.6720   31.4740 O   0  0  0  0  0  0  0  0  0  0  0  0
    7.3940    2.3870   33.5810 C   0  0  2  0  0  0  0  0  0  0  0  0
    8.4650    2.6610   34.4270 C   0  0  0  0  0  0  0  0  0  0  0  0
    6.1270    2.5450   34.0790 N   0  0  0  0  0  0  0  0  0  0  0  0
    8.2820    3.0860   35.6970 N   0  0  0  0  0  0  0  0  0  0  0  0
    5.9630    3.4770   35.1910 C   0  0  2  0  0  0  0  0  0  0  0  0
    6.9590    3.2360   36.3010 C   0  0  0  0  0  0  0  0  0  0  0  0
    4.5220    3.5620   35.7060 C   0  0  1  0  0  0  0  0  0  0  0  0
    4.0890    2.2660   36.1380 O   0  0  0  0  0  0  0  0  0  0  0  0
    4.3710    4.5590   36.8460 C   0  0  2  0  0  0  0  0  0  0  0  0
    2.9220    4.5050   37.3270 C   0  0  0  0  0  0  0  0  0  0  0  0
    4.6020    5.8910   36.3640 O   0  0  0  0  0  0  0  0  0  0  0  0
  1  2  2  0  0  0  0
  1  8  2  0  0  0  0
  2  4  1  0  0  0  0
  2  3  1  0  0  0  0
  4  5  1  0  0  0  0
  5  6  2  0  0  0  0
  7  5  1  1  0  0  0
  7  9  1  0  0  0  0
  7  8  1  0  0  0  0
  8 10  1  0  0  0  0
  9 11  1  0  0  0  0
 10 12  1  0  0  0  0
 11 13  1  1  0  0  0
 11 12  1  0  0  0  0
 13 14  1  1  0  0  0
 13 15  1  0  0  0  0
 15 17  1  0  0  0  0
 15 16  1  6  0  0  0
M  END
>  <MODEL>
       1

>  <COMPND>
    UNNAMED

>  <AUTHOR>
    GENERATED BY OPEN BABEL 2.4.90

>  <MASTER>
        0    0    0    0    0    0    0    0   17    0   17    0

