__3b3o_A_rec_5fw0_w30_lig_min.pdb
 OpenBabel10201916343D

 22 23  0  0  0  0  0  0  0  0999 V2000
   10.6200    0.4970   23.3400 C   0  0  0  0  0  0  0  0  0  0  0  0
    6.7890    0.4630   25.2390 C   0  0  0  0  0  0  0  0  0  0  0  0
    7.3510    1.6880   24.8830 C   0  0  0  0  0  0  0  0  0  0  0  0
    8.6000    1.7270   24.2650 C   0  0  0  0  0  0  0  0  0  0  0  0
    9.2580    0.5280   24.0060 C   0  0  0  0  0  0  0  0  0  0  0  0
    8.6470   -0.6620   24.3940 C   0  0  0  0  0  0  0  0  0  0  0  0
    7.4440   -0.6760   24.9880 N   0  0  0  0  0  0  0  0  0  0  0  0
    6.6700    2.8880   25.1410 N   0  0  0  0  0  0  0  0  0  0  0  0
    5.6240    2.9350   26.1570 C   0  0  0  0  0  0  0  0  0  0  0  0
    7.0190    4.0800   24.3750 C   0  0  0  0  0  0  0  0  0  0  0  0
    5.7910    4.4930   23.5780 C   0  0  0  0  0  0  0  0  0  0  0  0
    5.7610    3.7240   22.3770 O   0  0  0  0  0  0  0  0  0  0  0  0
    4.7230    2.7430   22.3570 C   0  0  0  0  0  0  0  0  0  0  0  0
   11.3050    1.8610   23.4180 C   0  0  0  0  0  0  0  0  0  0  0  0
   15.2590    3.3430   20.6560 C   0  0  0  0  0  0  0  0  0  0  0  0
   12.7580    1.6950   23.0060 C   0  0  0  0  0  0  0  0  0  0  0  0
   13.3240    2.5580   22.0680 C   0  0  0  0  0  0  0  0  0  0  0  0
   14.6540    2.3970   21.6860 C   0  0  0  0  0  0  0  0  0  0  0  0
   15.3960    1.3590   22.2510 C   0  0  0  0  0  0  0  0  0  0  0  0
   14.7970    0.5110   23.1980 C   0  0  0  0  0  0  0  0  0  0  0  0
   15.4770   -0.5180   23.7730 N   0  0  0  0  0  0  0  0  0  0  0  0
   13.5020    0.6970   23.5400 N   0  0  0  0  0  0  0  0  0  0  0  0
  1  5  1  0  0  0  0
  1 14  1  0  0  0  0
  2  7  2  0  0  0  0
  2  3  1  0  0  0  0
  3  4  2  0  0  0  0
  3  8  1  0  0  0  0
  4  5  1  0  0  0  0
  5  6  2  0  0  0  0
  6  7  1  0  0  0  0
  8 10  1  0  0  0  0
  8  9  1  0  0  0  0
 10 11  1  0  0  0  0
 11 12  1  0  0  0  0
 12 13  1  0  0  0  0
 14 16  1  0  0  0  0
 15 18  1  0  0  0  0
 16 17  2  0  0  0  0
 16 22  1  0  0  0  0
 17 18  1  0  0  0  0
 18 19  2  0  0  0  0
 19 20  1  0  0  0  0
 20 21  1  0  0  0  0
 20 22  2  0  0  0  0
M  END
>  <COMPND>
    UNNAMED

>  <AUTHOR>
    GENERATED BY OPEN BABEL 2.4.90

>  <MASTER>
        0    0    0    0    0    0    0    0   22    0   22    0

