__3b3p_A_rec_5fvp_wos_lig_min.pdb
 OpenBabel10201905053D

 22 24  0  0  0  0  0  0  0  0999 V2000
   10.1430    0.9020   24.6470 C   0  0  0  0  0  0  0  0  0  0  0  0
    6.7660    2.6760   26.5250 C   0  0  0  0  0  0  0  0  0  0  0  0
    6.7800    2.6100   25.1380 C   0  0  0  0  0  0  0  0  0  0  0  0
    7.8580    2.0440   24.4630 C   0  0  0  0  0  0  0  0  0  0  0  0
    8.9040    1.5440   25.2300 C   0  0  0  0  0  0  0  0  0  0  0  0
    8.8260    1.6370   26.6130 C   0  0  0  0  0  0  0  0  0  0  0  0
    7.7840    2.1910   27.2340 N   0  0  0  0  0  0  0  0  0  0  0  0
    5.7050    3.1510   24.4370 N   0  0  0  0  0  0  0  0  0  0  0  0
    4.4010    3.3340   25.0410 C   0  0  0  0  0  0  0  0  0  0  0  0
    4.3780    4.8490   25.2470 C   0  0  0  0  0  0  0  0  0  0  0  0
    4.7480    5.5510   24.0510 O   0  0  0  0  0  0  0  0  0  0  0  0
    6.0030    5.1510   23.4970 C   0  0  0  0  0  0  0  0  0  0  0  0
    5.9210    3.6800   23.1130 C   0  0  0  0  0  0  0  0  0  0  0  0
   11.0870    2.0740   24.3800 C   0  0  0  0  0  0  0  0  0  0  0  0
   13.9980    2.8610   20.2960 C   0  0  0  0  0  0  0  0  0  0  0  0
   12.2690    1.7510   23.4980 C   0  0  0  0  0  0  0  0  0  0  0  0
   12.5460    2.4750   22.3410 C   0  0  0  0  0  0  0  0  0  0  0  0
   13.6670    2.1410   21.5800 C   0  0  0  0  0  0  0  0  0  0  0  0
   14.4820    1.1080   22.0010 C   0  0  0  0  0  0  0  0  0  0  0  0
   14.1790    0.4330   23.1740 C   0  0  0  0  0  0  0  0  0  0  0  0
   14.9700   -0.5730   23.6060 N   0  0  0  0  0  0  0  0  0  0  0  0
   13.0950    0.7630   23.8890 N   0  0  0  0  0  0  0  0  0  0  0  0
  1 14  1  0  0  0  0
  1  5  1  0  0  0  0
  2  3  2  0  0  0  0
  2  7  1  0  0  0  0
  3  4  1  0  0  0  0
  3  8  1  0  0  0  0
  4  5  2  0  0  0  0
  5  6  1  0  0  0  0
  6  7  2  0  0  0  0
  8 13  1  0  0  0  0
  8  9  1  0  0  0  0
  9 10  1  0  0  0  0
 10 11  1  0  0  0  0
 11 12  1  0  0  0  0
 12 13  1  0  0  0  0
 14 16  1  0  0  0  0
 15 18  1  0  0  0  0
 16 17  2  0  0  0  0
 16 22  1  0  0  0  0
 17 18  1  0  0  0  0
 18 19  2  0  0  0  0
 19 20  1  0  0  0  0
 20 21  1  0  0  0  0
 20 22  2  0  0  0  0
M  END
>  <COMPND>
    UNNAMED

>  <AUTHOR>
    GENERATED BY OPEN BABEL 2.4.90

>  <MASTER>
        0    0    0    0    0    0    0    0   22    0   22    0

