__3n5v_A_rec_3png_h4b_lig_docked.pdb
 OpenBabel10201919093D

 17 18  0  0  1  0  0  0  0  0999 V2000
    9.9170    2.5000   34.1360 N   0  0  0  0  0  4  0  0  0  0  0  0
   10.1930    2.0790   32.8770 C   0  0  0  0  0  0  0  0  0  0  0  0
   11.5290    1.9920   32.4410 N   0  0  0  0  0  0  0  0  0  0  0  0
    9.1540    1.7690   32.0560 N   0  0  0  0  0  0  0  0  0  0  0  0
    7.8610    1.8740   32.4350 C   0  0  0  0  0  0  0  0  0  0  0  0
    6.9610    1.4920   31.6160 O   0  0  0  0  0  0  0  0  0  0  0  0
    7.5570    2.3270   33.7230 C   0  0  2  0  0  0  0  0  0  0  0  0
    8.6020    2.6350   34.5530 C   0  0  0  0  0  0  0  0  0  0  0  0
    6.2440    2.4480   34.2290 N   0  0  0  0  0  0  0  0  0  0  0  0
    8.4180    3.1150   35.8020 N   0  0  0  0  0  0  0  0  0  0  0  0
    6.1530    3.4510   35.2820 C   0  0  2  0  0  0  0  0  0  0  0  0
    7.1120    3.2370   36.4380 C   0  0  0  0  0  0  0  0  0  0  0  0
    4.7320    3.5630   35.7900 C   0  0  1  0  0  0  0  0  0  0  0  0
    4.3530    2.2500   36.2040 O   0  0  0  0  0  0  0  0  0  0  0  0
    4.5750    4.5360   36.9430 C   0  0  2  0  0  0  0  0  0  0  0  0
    3.0850    4.5790   37.3530 C   0  0  0  0  0  0  0  0  0  0  0  0
    4.8860    5.8530   36.4960 O   0  0  0  0  0  0  0  0  0  0  0  0
  1  2  2  0  0  0  0
  1  8  2  0  0  0  0
  2  4  1  0  0  0  0
  2  3  1  0  0  0  0
  4  5  1  0  0  0  0
  5  6  2  0  0  0  0
  7  5  1  1  0  0  0
  7  9  1  0  0  0  0
  7  8  1  0  0  0  0
  8 10  1  0  0  0  0
  9 11  1  0  0  0  0
 10 12  1  0  0  0  0
 11 13  1  1  0  0  0
 11 12  1  0  0  0  0
 13 14  1  1  0  0  0
 13 15  1  0  0  0  0
 15 17  1  0  0  0  0
 15 16  1  6  0  0  0
M  END
>  <MODEL>
       1

>  <COMPND>
    UNNAMED

>  <AUTHOR>
    GENERATED BY OPEN BABEL 2.4.90

>  <MASTER>
        0    0    0    0    0    0    0    0   17    0   17    0

