__3n5y_A_rec_3png_h4b_lig_docked.pdb
 OpenBabel10201920313D

 17 18  0  0  1  0  0  0  0  0999 V2000
    9.9550    2.4820   33.7930 N   0  0  0  0  0  4  0  0  0  0  0  0
   10.1690    2.0880   32.5140 C   0  0  0  0  0  0  0  0  0  0  0  0
   11.4840    1.9880   32.0190 N   0  0  0  0  0  0  0  0  0  0  0  0
    9.0910    1.8150   31.7320 N   0  0  0  0  0  0  0  0  0  0  0  0
    7.8180    1.9340   32.1690 C   0  0  0  0  0  0  0  0  0  0  0  0
    6.8760    1.5870   31.3810 O   0  0  0  0  0  0  0  0  0  0  0  0
    7.5780    2.3610   33.4780 C   0  0  2  0  0  0  0  0  0  0  0  0
    8.6620    2.6300   34.2700 C   0  0  0  0  0  0  0  0  0  0  0  0
    6.2890    2.4920   34.0440 N   0  0  0  0  0  0  0  0  0  0  0  0
    8.5400    3.0830   35.5370 N   0  0  0  0  0  0  0  0  0  0  0  0
    6.2620    3.4710   35.1230 C   0  0  2  0  0  0  0  0  0  0  0  0
    7.2650    3.2120   36.2310 C   0  0  0  0  0  0  0  0  0  0  0  0
    4.8660    3.5950   35.6940 C   0  0  1  0  0  0  0  0  0  0  0  0
    4.4790    2.2790   36.0900 O   0  0  0  0  0  0  0  0  0  0  0  0
    4.7770    4.5400   36.8770 C   0  0  2  0  0  0  0  0  0  0  0  0
    3.3390    4.4880   37.4430 C   0  0  0  0  0  0  0  0  0  0  0  0
    4.9640    5.8790   36.4280 O   0  0  0  0  0  0  0  0  0  0  0  0
  1  2  2  0  0  0  0
  1  8  2  0  0  0  0
  2  4  1  0  0  0  0
  2  3  1  0  0  0  0
  4  5  1  0  0  0  0
  5  6  2  0  0  0  0
  7  5  1  1  0  0  0
  7  9  1  0  0  0  0
  7  8  1  0  0  0  0
  8 10  1  0  0  0  0
  9 11  1  0  0  0  0
 10 12  1  0  0  0  0
 11 13  1  1  0  0  0
 11 12  1  0  0  0  0
 13 14  1  1  0  0  0
 13 15  1  0  0  0  0
 15 17  1  0  0  0  0
 15 16  1  6  0  0  0
M  END
>  <MODEL>
       1

>  <COMPND>
    UNNAMED

>  <AUTHOR>
    GENERATED BY OPEN BABEL 2.4.90

>  <MASTER>
        0    0    0    0    0    0    0    0   17    0   17    0

