__3nly_A_rec_3tyo_dxw_lig_min.pdb
 OpenBabel10201906463D

 24 26  0  0  1  0  0  0  0  0999 V2000
    9.9060    0.4250   23.5200 C   0  0  2  0  0  0  0  0  0  0  0  0
    8.6420    0.3480   24.3600 C   0  0  1  0  0  0  0  0  0  0  0  0
    8.8760   -0.8180   25.3370 C   0  0  0  0  0  0  0  0  0  0  0  0
    9.7530   -1.6940   24.5560 N   0  0  0  0  0  0  0  0  0  0  0  0
   10.2510   -1.0540   23.3320 C   0  0  0  0  0  0  0  0  0  0  0  0
   10.9790    1.2110   24.2850 C   0  0  0  0  0  0  0  0  0  0  0  0
   15.6010   -0.1140   23.9820 N   0  0  0  0  0  0  0  0  0  0  0  0
   14.5640    0.5230   23.4040 C   0  0  0  0  0  0  0  0  0  0  0  0
   14.7030    1.1150   22.1420 C   0  0  0  0  0  0  0  0  0  0  0  0
   13.6050    1.7710   21.5750 C   0  0  0  0  0  0  0  0  0  0  0  0
   12.4020    1.7960   22.2690 C   0  0  0  0  0  0  0  0  0  0  0  0
   13.6780    2.4400   20.2180 C   0  0  0  0  0  0  0  0  0  0  0  0
   13.3810    0.5730   24.0710 N   0  0  0  0  0  0  0  0  0  0  0  0
   12.3070    1.1940   23.5290 C   0  0  0  0  0  0  0  0  0  0  0  0
    8.4200    1.6120   24.9760 O   0  0  0  0  0  0  0  0  0  0  0  0
    7.3670    2.3530   24.3600 C   0  0  0  0  0  0  0  0  0  0  0  0
    7.7650    3.8120   24.5160 C   0  0  0  0  0  0  0  0  0  0  0  0
    7.3720    4.3040   25.8200 N   0  0  0  0  0  0  0  0  0  0  0  0
    5.9800    4.6980   26.0790 C   0  0  0  0  0  0  0  0  0  0  0  0
    5.8800    6.1220   26.5920 C   0  0  0  0  0  0  0  0  0  0  0  0
    6.6740    7.1860   26.2180 O   0  0  0  0  0  0  0  0  0  0  0  0
    6.2440    8.3000   26.9160 C   0  0  0  0  0  0  0  0  0  0  0  0
    5.1830    7.9340   27.7270 C   0  0  0  0  0  0  0  0  0  0  0  0
    4.9510    6.5860   27.5250 C   0  0  0  0  0  0  0  0  0  0  0  0
  1  5  1  0  0  0  0
  1  6  1  1  0  0  0
  1  2  1  0  0  0  0
  2 15  1  1  0  0  0
  2  3  1  0  0  0  0
  3  4  1  0  0  0  0
  4  5  1  0  0  0  0
  6 14  1  0  0  0  0
  7  8  1  0  0  0  0
  8  9  2  0  0  0  0
  8 13  1  0  0  0  0
  9 10  1  0  0  0  0
 10 12  1  0  0  0  0
 10 11  2  0  0  0  0
 11 14  1  0  0  0  0
 13 14  2  0  0  0  0
 15 16  1  0  0  0  0
 16 17  1  0  0  0  0
 17 18  1  0  0  0  0
 18 19  1  0  0  0  0
 19 20  1  0  0  0  0
 20 24  2  0  0  0  0
 20 21  1  0  0  0  0
 21 22  1  0  0  0  0
 22 23  2  0  0  0  0
 23 24  1  0  0  0  0
M  END
>  <COMPND>
    UNNAMED

>  <AUTHOR>
    GENERATED BY OPEN BABEL 2.4.90

>  <MASTER>
        0    0    0    0    0    0    0    0   24    0   24    0

