__3nny_A_rec_4uh2_s84_lig_min.pdb
 OpenBabel10201916493D

 26 27  0  0  0  0  0  0  0  0999 V2000
    7.7300   -1.0620   25.7410 C   0  0  0  0  0  0  0  0  0  0  0  0
    6.6240   -0.2460   25.4860 C   0  0  0  0  0  0  0  0  0  0  0  0
    6.7350    0.8550   24.6310 C   0  0  0  0  0  0  0  0  0  0  0  0
    8.9480   -0.7650   25.1430 C   0  0  0  0  0  0  0  0  0  0  0  0
    9.0580    0.3360   24.3020 C   0  0  0  0  0  0  0  0  0  0  0  0
    7.9610    1.1430   24.0390 C   0  0  0  0  0  0  0  0  0  0  0  0
    8.3570   -3.2550   26.1890 F   0  0  0  0  0  0  0  0  0  0  0  0
    7.6310   -2.2520   26.6600 C   0  0  0  0  0  0  0  0  0  0  0  0
    6.3680   -2.6330   26.7520 F   0  0  0  0  0  0  0  0  0  0  0  0
    8.0800   -1.9370   27.8630 F   0  0  0  0  0  0  0  0  0  0  0  0
    5.6250    1.6790   24.3730 N   0  0  0  0  0  0  0  0  0  0  0  0
    4.4640    1.1580   23.6610 C   0  0  0  0  0  0  0  0  0  0  0  0
    5.6380    3.0670   24.8230 C   0  0  0  0  0  0  0  0  0  0  0  0
    5.5640    3.9190   23.5570 C   0  0  0  0  0  0  0  0  0  0  0  0
    4.6860    5.0810   23.7820 N   0  0  0  0  0  0  0  0  0  0  0  0
    5.5110    6.2270   24.1940 C   0  0  0  0  0  0  0  0  0  0  0  0
   10.3820    0.6350   23.6600 C   0  0  0  0  0  0  0  0  0  0  0  0
   11.2850    1.5020   24.5300 C   0  0  0  0  0  0  0  0  0  0  0  0
   12.5610    1.4080   23.7420 C   0  0  0  0  0  0  0  0  0  0  0  0
   13.6100    0.7410   24.2670 N   0  0  0  0  0  0  0  0  0  0  0  0
   14.7630    0.6080   23.5750 C   0  0  0  0  0  0  0  0  0  0  0  0
   15.7970   -0.0540   24.1430 N   0  0  0  0  0  0  0  0  0  0  0  0
   14.8780    1.1350   22.2900 C   0  0  0  0  0  0  0  0  0  0  0  0
   13.7940    1.8050   21.7350 C   0  0  0  0  0  0  0  0  0  0  0  0
   13.8740    2.3880   20.3490 C   0  0  0  0  0  0  0  0  0  0  0  0
   12.6260    1.9320   22.4630 C   0  0  0  0  0  0  0  0  0  0  0  0
  1  4  2  0  0  0  0
  1  2  1  0  0  0  0
  1  8  1  0  0  0  0
  2  3  2  0  0  0  0
  3  6  1  0  0  0  0
  3 11  1  0  0  0  0
  4  5  1  0  0  0  0
  5 17  1  0  0  0  0
  5  6  2  0  0  0  0
  7  8  1  0  0  0  0
  8  9  1  0  0  0  0
  8 10  1  0  0  0  0
 11 12  1  0  0  0  0
 11 13  1  0  0  0  0
 13 14  1  0  0  0  0
 14 15  1  0  0  0  0
 15 16  1  0  0  0  0
 17 18  1  0  0  0  0
 18 19  1  0  0  0  0
 19 26  2  0  0  0  0
 19 20  1  0  0  0  0
 20 21  2  0  0  0  0
 21 23  1  0  0  0  0
 21 22  1  0  0  0  0
 23 24  2  0  0  0  0
 24 25  1  0  0  0  0
 24 26  1  0  0  0  0
M  END
>  <COMPND>
    UNNAMED

>  <AUTHOR>
    GENERATED BY OPEN BABEL 2.4.90

>  <MASTER>
        0    0    0    0    0    0    0    0   26    0   26    0

