__3nny_A_rec_5unt_8j1_lig_min.pdb
 OpenBabel10201916213D

 23 25  0  0  0  0  0  0  0  0999 V2000
   14.9220   -0.5750   23.4040 N   0  0  0  0  0  0  0  0  0  0  0  0
   14.4160    0.6870   23.3770 C   0  0  0  0  0  0  0  0  0  0  0  0
   13.2740    0.9640   24.0470 N   0  0  0  0  0  0  0  0  0  0  0  0
   12.7460    2.2100   24.0440 C   0  0  0  0  0  0  0  0  0  0  0  0
   15.0770    1.6870   22.6550 C   0  0  0  0  0  0  0  0  0  0  0  0
   14.5570    2.9730   22.6390 C   0  0  0  0  0  0  0  0  0  0  0  0
   15.2450    4.0620   21.8580 C   0  0  0  0  0  0  0  0  0  0  0  0
   13.3830    3.2350   23.3360 C   0  0  0  0  0  0  0  0  0  0  0  0
   12.8400    4.5160   23.3400 C   0  0  0  0  0  0  0  0  0  0  0  0
   11.6700    4.7740   24.0420 C   0  0  0  0  0  0  0  0  0  0  0  0
   11.0220    3.7510   24.7390 C   0  0  0  0  0  0  0  0  0  0  0  0
   11.5640    2.4660   24.7340 C   0  0  0  0  0  0  0  0  0  0  0  0
    9.7390    4.0650   25.4870 C   0  0  0  0  0  0  0  0  0  0  0  0
    8.6770    4.0990   24.5320 O   0  0  0  0  0  0  0  0  0  0  0  0
    7.4280    4.5930   24.8270 C   0  0  0  0  0  0  0  0  0  0  0  0
    6.8310    4.2660   26.0390 C   0  0  0  0  0  0  0  0  0  0  0  0
    6.7570    5.4090   23.9110 C   0  0  0  0  0  0  0  0  0  0  0  0
    5.4900    5.9060   24.2090 C   0  0  0  0  0  0  0  0  0  0  0  0
    4.8970    5.5780   25.4290 C   0  0  0  0  0  0  0  0  0  0  0  0
    5.5620    4.7540   26.3410 C   0  0  0  0  0  0  0  0  0  0  0  0
    4.9200    4.3970   27.6600 C   0  0  0  0  0  0  0  0  0  0  0  0
    5.0380    2.9450   27.8940 N   0  0  0  0  0  0  0  0  0  0  0  0
    3.9290    2.2350   27.2290 C   0  0  0  0  0  0  0  0  0  0  0  0
  1  2  1  0  0  0  0
  2  5  2  0  0  0  0
  2  3  1  0  0  0  0
  3  4  2  0  0  0  0
  4  8  1  0  0  0  0
  4 12  1  0  0  0  0
  5  6  1  0  0  0  0
  6  7  1  0  0  0  0
  6  8  2  0  0  0  0
  8  9  1  0  0  0  0
  9 10  2  0  0  0  0
 10 11  1  0  0  0  0
 11 12  2  0  0  0  0
 11 13  1  0  0  0  0
 13 14  1  0  0  0  0
 14 15  1  0  0  0  0
 15 17  2  0  0  0  0
 15 16  1  0  0  0  0
 16 20  2  0  0  0  0
 17 18  1  0  0  0  0
 18 19  2  0  0  0  0
 19 20  1  0  0  0  0
 20 21  1  0  0  0  0
 21 22  1  0  0  0  0
 22 23  1  0  0  0  0
M  END
>  <COMPND>
    UNNAMED

>  <AUTHOR>
    GENERATED BY OPEN BABEL 2.4.90

>  <MASTER>
        0    0    0    0    0    0    0    0   23    0   23    0

