__3png_A_rec_4uh2_s84_lig_min.pdb
 OpenBabel10201912543D

 26 27  0  0  0  0  0  0  0  0999 V2000
    7.5430   -0.9350   25.7480 C   0  0  0  0  0  0  0  0  0  0  0  0
    6.5060   -0.0790   25.3740 C   0  0  0  0  0  0  0  0  0  0  0  0
    6.7330    0.9560   24.4610 C   0  0  0  0  0  0  0  0  0  0  0  0
    8.8120   -0.7460   25.2130 C   0  0  0  0  0  0  0  0  0  0  0  0
    9.0370    0.2900   24.3140 C   0  0  0  0  0  0  0  0  0  0  0  0
    8.0070    1.1380   23.9320 C   0  0  0  0  0  0  0  0  0  0  0  0
    8.2710   -2.9690   26.6070 F   0  0  0  0  0  0  0  0  0  0  0  0
    7.3190   -2.0560   26.7310 C   0  0  0  0  0  0  0  0  0  0  0  0
    6.1440   -2.6160   26.4980 F   0  0  0  0  0  0  0  0  0  0  0  0
    7.3430   -1.5890   27.9680 F   0  0  0  0  0  0  0  0  0  0  0  0
    5.6910    1.8220   24.0820 N   0  0  0  0  0  0  0  0  0  0  0  0
    4.9770    1.6180   22.8270 C   0  0  0  0  0  0  0  0  0  0  0  0
    5.3230    2.9320   24.9540 C   0  0  0  0  0  0  0  0  0  0  0  0
    6.3510    4.0310   24.6890 C   0  0  0  0  0  0  0  0  0  0  0  0
    5.8830    4.9060   23.5990 N   0  0  0  0  0  0  0  0  0  0  0  0
    5.6570    6.2560   24.1370 C   0  0  0  0  0  0  0  0  0  0  0  0
   10.4120    0.4730   23.7400 C   0  0  0  0  0  0  0  0  0  0  0  0
   11.2400    1.5080   24.4940 C   0  0  0  0  0  0  0  0  0  0  0  0
   12.5250    1.4160   23.7210 C   0  0  0  0  0  0  0  0  0  0  0  0
   13.5770    0.7710   24.2670 N   0  0  0  0  0  0  0  0  0  0  0  0
   14.7380    0.6410   23.5890 C   0  0  0  0  0  0  0  0  0  0  0  0
   15.7740    0.0010   24.1780 N   0  0  0  0  0  0  0  0  0  0  0  0
   14.8590    1.1470   22.2960 C   0  0  0  0  0  0  0  0  0  0  0  0
   13.7730    1.7940   21.7200 C   0  0  0  0  0  0  0  0  0  0  0  0
   13.8600    2.3540   20.3250 C   0  0  0  0  0  0  0  0  0  0  0  0
   12.5960    1.9190   22.4340 C   0  0  0  0  0  0  0  0  0  0  0  0
  1  4  2  0  0  0  0
  1  2  1  0  0  0  0
  1  8  1  0  0  0  0
  2  3  2  0  0  0  0
  3  6  1  0  0  0  0
  3 11  1  0  0  0  0
  4  5  1  0  0  0  0
  5 17  1  0  0  0  0
  5  6  2  0  0  0  0
  7  8  1  0  0  0  0
  8  9  1  0  0  0  0
  8 10  1  0  0  0  0
 11 12  1  0  0  0  0
 11 13  1  0  0  0  0
 13 14  1  0  0  0  0
 14 15  1  0  0  0  0
 15 16  1  0  0  0  0
 17 18  1  0  0  0  0
 18 19  1  0  0  0  0
 19 26  2  0  0  0  0
 19 20  1  0  0  0  0
 20 21  2  0  0  0  0
 21 23  1  0  0  0  0
 21 22  1  0  0  0  0
 23 24  2  0  0  0  0
 24 25  1  0  0  0  0
 24 26  1  0  0  0  0
M  END
>  <COMPND>
    UNNAMED

>  <AUTHOR>
    GENERATED BY OPEN BABEL 2.4.90

>  <MASTER>
        0    0    0    0    0    0    0    0   26    0   26    0

