__3rqj_A_rec_5fw0_w30_lig_min.pdb
 OpenBabel10201907003D

 22 23  0  0  0  0  0  0  0  0999 V2000
   10.0780    0.5590   23.7660 C   0  0  0  0  0  0  0  0  0  0  0  0
    6.2290    0.7980   25.6150 C   0  0  0  0  0  0  0  0  0  0  0  0
    6.9250    1.9790   25.3550 C   0  0  0  0  0  0  0  0  0  0  0  0
    8.1820    1.9290   24.7560 C   0  0  0  0  0  0  0  0  0  0  0  0
    8.7140    0.6880   24.4180 C   0  0  0  0  0  0  0  0  0  0  0  0
    7.9740   -0.4550   24.7110 C   0  0  0  0  0  0  0  0  0  0  0  0
    6.7650   -0.3830   25.2890 N   0  0  0  0  0  0  0  0  0  0  0  0
    6.3690    3.2240   25.6920 N   0  0  0  0  0  0  0  0  0  0  0  0
    5.5980    3.3750   26.9220 C   0  0  0  0  0  0  0  0  0  0  0  0
    6.5680    4.3550   24.7930 C   0  0  0  0  0  0  0  0  0  0  0  0
    5.2880    4.5400   23.9930 C   0  0  0  0  0  0  0  0  0  0  0  0
    5.4630    3.9110   22.7240 O   0  0  0  0  0  0  0  0  0  0  0  0
    4.6760    2.7310   22.5630 C   0  0  0  0  0  0  0  0  0  0  0  0
   11.1160    1.4230   24.4810 C   0  0  0  0  0  0  0  0  0  0  0  0
   13.8560    2.4600   20.3720 C   0  0  0  0  0  0  0  0  0  0  0  0
   12.4260    1.3350   23.7170 C   0  0  0  0  0  0  0  0  0  0  0  0
   12.5430    1.9170   22.4540 C   0  0  0  0  0  0  0  0  0  0  0  0
   13.7430    1.8250   21.7540 C   0  0  0  0  0  0  0  0  0  0  0  0
   14.8110    1.1400   22.3330 C   0  0  0  0  0  0  0  0  0  0  0  0
   14.6620    0.5700   23.6090 C   0  0  0  0  0  0  0  0  0  0  0  0
   15.6720   -0.1120   24.2140 N   0  0  0  0  0  0  0  0  0  0  0  0
   13.4800    0.6770   24.2560 N   0  0  0  0  0  0  0  0  0  0  0  0
  1  5  1  0  0  0  0
  1 14  1  0  0  0  0
  2  7  2  0  0  0  0
  2  3  1  0  0  0  0
  3  4  2  0  0  0  0
  3  8  1  0  0  0  0
  4  5  1  0  0  0  0
  5  6  2  0  0  0  0
  6  7  1  0  0  0  0
  8 10  1  0  0  0  0
  8  9  1  0  0  0  0
 10 11  1  0  0  0  0
 11 12  1  0  0  0  0
 12 13  1  0  0  0  0
 14 16  1  0  0  0  0
 15 18  1  0  0  0  0
 16 17  2  0  0  0  0
 16 22  1  0  0  0  0
 17 18  1  0  0  0  0
 18 19  2  0  0  0  0
 19 20  1  0  0  0  0
 20 21  1  0  0  0  0
 20 22  2  0  0  0  0
M  END
>  <COMPND>
    UNNAMED

>  <AUTHOR>
    GENERATED BY OPEN BABEL 2.4.90

>  <MASTER>
        0    0    0    0    0    0    0    0   22    0   22    0

