__3svp_A_rec_5fw0_w30_lig_min.pdb
 OpenBabel10201906283D

 22 23  0  0  0  0  0  0  0  0999 V2000
   10.0930   -0.1920   23.3630 C   0  0  0  0  0  0  0  0  0  0  0  0
    6.5340   -0.9250   25.6190 C   0  0  0  0  0  0  0  0  0  0  0  0
    6.7930    0.3720   25.1730 C   0  0  0  0  0  0  0  0  0  0  0  0
    7.9470    0.6380   24.4390 C   0  0  0  0  0  0  0  0  0  0  0  0
    8.8180   -0.4110   24.1550 C   0  0  0  0  0  0  0  0  0  0  0  0
    8.5080   -1.6810   24.6350 C   0  0  0  0  0  0  0  0  0  0  0  0
    7.3910   -1.9150   25.3410 N   0  0  0  0  0  0  0  0  0  0  0  0
    5.8990    1.4150   25.4590 N   0  0  0  0  0  0  0  0  0  0  0  0
    4.7260    1.1720   26.2920 C   0  0  0  0  0  0  0  0  0  0  0  0
    6.1570    2.7410   24.9050 C   0  0  0  0  0  0  0  0  0  0  0  0
    4.8260    3.3190   24.4510 C   0  0  0  0  0  0  0  0  0  0  0  0
    4.9720    3.7650   23.1040 O   0  0  0  0  0  0  0  0  0  0  0  0
    5.7210    2.8660   22.2860 C   0  0  0  0  0  0  0  0  0  0  0  0
   10.8010    1.0910   23.7990 C   0  0  0  0  0  0  0  0  0  0  0  0
   14.2440    2.7770   20.5170 C   0  0  0  0  0  0  0  0  0  0  0  0
   12.2180    1.0690   23.2520 C   0  0  0  0  0  0  0  0  0  0  0  0
   12.5730    1.8990   22.1880 C   0  0  0  0  0  0  0  0  0  0  0  0
   13.8700    1.8690   21.6840 C   0  0  0  0  0  0  0  0  0  0  0  0
   14.7960    0.9950   22.2560 C   0  0  0  0  0  0  0  0  0  0  0  0
   14.4070    0.1760   23.3300 C   0  0  0  0  0  0  0  0  0  0  0  0
   15.2710   -0.6960   23.9180 N   0  0  0  0  0  0  0  0  0  0  0  0
   13.1370    0.2320   23.7890 N   0  0  0  0  0  0  0  0  0  0  0  0
  1  5  1  0  0  0  0
  1 14  1  0  0  0  0
  2  7  2  0  0  0  0
  2  3  1  0  0  0  0
  3  4  2  0  0  0  0
  3  8  1  0  0  0  0
  4  5  1  0  0  0  0
  5  6  2  0  0  0  0
  6  7  1  0  0  0  0
  8 10  1  0  0  0  0
  8  9  1  0  0  0  0
 10 11  1  0  0  0  0
 11 12  1  0  0  0  0
 12 13  1  0  0  0  0
 14 16  1  0  0  0  0
 15 18  1  0  0  0  0
 16 17  2  0  0  0  0
 16 22  1  0  0  0  0
 17 18  1  0  0  0  0
 18 19  2  0  0  0  0
 19 20  1  0  0  0  0
 20 21  1  0  0  0  0
 20 22  2  0  0  0  0
M  END
>  <COMPND>
    UNNAMED

>  <AUTHOR>
    GENERATED BY OPEN BABEL 2.4.90

>  <MASTER>
        0    0    0    0    0    0    0    0   22    0   22    0

