__3tyl_A_rec_3n5z_xfm_lig_min.pdb
 OpenBabel10201913323D

 26 28  0  0  0  0  0  0  0  0999 V2000
   10.6110    3.2420   24.8130 C   0  0  0  0  0  0  0  0  0  0  0  0
    9.2760    3.1810   24.9850 N   0  0  0  0  0  0  0  0  0  0  0  0
    8.4870    4.2560   24.8060 C   0  0  0  0  0  0  0  0  0  0  0  0
    9.0660    5.4660   24.4300 C   0  0  0  0  0  0  0  0  0  0  0  0
   10.4450    5.5500   24.2190 C   0  0  0  0  0  0  0  0  0  0  0  0
   11.2350    4.4250   24.4310 C   0  0  0  0  0  0  0  0  0  0  0  0
   11.3970    1.9980   25.0440 C   0  0  0  0  0  0  0  0  0  0  0  0
   11.4850    1.2570   23.7390 C   0  0  0  0  0  0  0  0  0  0  0  0
   13.8540    0.5610   23.9800 N   0  0  0  0  0  0  0  0  0  0  0  0
   12.9490    1.3340   23.3310 C   0  0  0  0  0  0  0  0  0  0  0  0
   13.3350    2.2120   22.3120 C   0  0  0  0  0  0  0  0  0  0  0  0
   14.6720    2.2960   21.9660 C   0  0  0  0  0  0  0  0  0  0  0  0
   15.5850    1.4660   22.6160 C   0  0  0  0  0  0  0  0  0  0  0  0
   15.1410    0.6170   23.6380 C   0  0  0  0  0  0  0  0  0  0  0  0
   15.0800    3.2480   20.8530 C   0  0  0  0  0  0  0  0  0  0  0  0
   15.9630   -0.2210   24.2860 N   0  0  0  0  0  0  0  0  0  0  0  0
    6.9970    4.1370   25.0450 C   0  0  0  0  0  0  0  0  0  0  0  0
    6.8330    3.4830   26.4250 C   0  0  0  0  0  0  0  0  0  0  0  0
    5.5120    3.8180   27.0980 C   0  0  0  0  0  0  0  0  0  0  0  0
    4.7450    4.9270   26.7040 C   0  0  0  0  0  0  0  0  0  0  0  0
    3.5300    5.1960   27.3470 C   0  0  0  0  0  0  0  0  0  0  0  0
    3.1060    4.3840   28.3550 N   0  0  0  0  0  0  0  0  0  0  0  0
    3.8410    3.3030   28.7560 C   0  0  0  0  0  0  0  0  0  0  0  0
    5.0580    3.0030   28.1380 C   0  0  0  0  0  0  0  0  0  0  0  0
    3.4010    2.5050   29.7700 N   0  0  0  0  0  0  0  0  0  0  0  0
    2.6960    6.3820   26.9130 C   0  0  0  0  0  0  0  0  0  0  0  0
  1  6  2  0  0  0  0
  1  2  1  0  0  0  0
  1  7  1  0  0  0  0
  2  3  2  0  0  0  0
  3  4  1  0  0  0  0
  3 17  1  0  0  0  0
  4  5  2  0  0  0  0
  5  6  1  0  0  0  0
  7  8  1  0  0  0  0
  8 10  1  0  0  0  0
  9 10  2  0  0  0  0
  9 14  1  0  0  0  0
 10 11  1  0  0  0  0
 11 12  2  0  0  0  0
 12 15  1  0  0  0  0
 12 13  1  0  0  0  0
 13 14  2  0  0  0  0
 14 16  1  0  0  0  0
 17 18  1  0  0  0  0
 18 19  1  0  0  0  0
 19 20  2  0  0  0  0
 19 24  1  0  0  0  0
 20 21  1  0  0  0  0
 21 26  1  0  0  0  0
 21 22  2  0  0  0  0
 22 23  1  0  0  0  0
 23 24  2  0  0  0  0
 23 25  1  0  0  0  0
M  END
>  <COMPND>
    UNNAMED

>  <AUTHOR>
    GENERATED BY OPEN BABEL 2.4.90

>  <MASTER>
        0    0    0    0    0    0    0    0   26    0   26    0

