__3tyo_A_rec_4kco_5h4_lig_min.pdb
 OpenBabel10201906593D

 27 29  0  0  0  0  0  0  0  0999 V2000
   10.1810    4.0660   25.3640 C   0  0  0  0  0  0  0  0  0  0  0  0
   10.8580    4.8970   26.2540 C   0  0  0  0  0  0  0  0  0  0  0  0
   12.1750    4.4830   26.6880 C   0  0  0  0  0  0  0  0  0  0  0  0
   12.6530    3.2720   26.2080 C   0  0  0  0  0  0  0  0  0  0  0  0
   11.9650    2.4580   25.3060 C   0  0  0  0  0  0  0  0  0  0  0  0
   10.6840    2.8590   24.8820 C   0  0  0  0  0  0  0  0  0  0  0  0
   12.4680    1.2730   24.8630 N   0  0  0  0  0  0  0  0  0  0  0  0
   13.5890    1.2190   24.1170 C   0  0  0  0  0  0  0  0  0  0  0  0
   14.6870    0.7250   24.6910 N   0  0  0  0  0  0  0  0  0  0  0  0
   13.5860    1.7490   22.7060 C   0  0  0  0  0  0  0  0  0  0  0  0
   14.9520    2.7400   22.2960 S   0  0  0  0  0  0  0  0  0  0  0  0
   14.4350    3.0820   20.6620 C   0  0  0  0  0  0  0  0  0  0  0  0
   13.1930    2.4270   20.5440 C   0  0  0  0  0  0  0  0  0  0  0  0
   12.7130    1.6990   21.6430 C   0  0  0  0  0  0  0  0  0  0  0  0
    8.8040    4.5020   24.8430 C   0  0  0  0  0  0  0  0  0  0  0  0
    7.7170    3.6220   25.3030 N   0  0  0  0  0  0  0  0  0  0  0  0
    6.8240    3.2240   24.1690 C   0  0  0  0  0  0  0  0  0  0  0  0
    6.9640    1.7620   23.7580 C   0  0  0  0  0  0  0  0  0  0  0  0
    6.8660    4.3700   26.2580 C   0  0  0  0  0  0  0  0  0  0  0  0
    5.9680    3.3960   27.0400 C   0  0  0  0  0  0  0  0  0  0  0  0
    1.6860    2.9700   29.3060 F   0  0  0  0  0  0  0  0  0  0  0  0
    2.6200    3.7690   28.7620 C   0  0  0  0  0  0  0  0  0  0  0  0
    2.4250    5.1510   28.7680 C   0  0  0  0  0  0  0  0  0  0  0  0
    3.3880    5.9810   28.2020 C   0  0  0  0  0  0  0  0  0  0  0  0
    4.5440    5.4190   27.6430 C   0  0  0  0  0  0  0  0  0  0  0  0
    3.7690    3.2020   28.2000 C   0  0  0  0  0  0  0  0  0  0  0  0
    4.7350    4.0290   27.6360 C   0  0  0  0  0  0  0  0  0  0  0  0
  1  2  2  0  0  0  0
  1  6  1  0  0  0  0
  1 15  1  0  0  0  0
  2  3  1  0  0  0  0
  3  4  2  0  0  0  0
  4  5  1  0  0  0  0
  5  7  1  0  0  0  0
  5  6  2  0  0  0  0
  7  8  1  0  0  0  0
  8 10  1  0  0  0  0
  8  9  2  0  0  0  0
 10 14  2  0  0  0  0
 10 11  1  0  0  0  0
 11 12  1  0  0  0  0
 12 13  2  0  0  0  0
 13 14  1  0  0  0  0
 15 16  1  0  0  0  0
 16 17  1  0  0  0  0
 16 19  1  0  0  0  0
 17 18  1  0  0  0  0
 19 20  1  0  0  0  0
 20 27  1  0  0  0  0
 21 22  1  0  0  0  0
 22 23  2  0  0  0  0
 22 26  1  0  0  0  0
 23 24  1  0  0  0  0
 24 25  2  0  0  0  0
 25 27  1  0  0  0  0
 26 27  2  0  0  0  0
M  END
>  <COMPND>
    UNNAMED

>  <AUTHOR>
    GENERATED BY OPEN BABEL 2.4.90

>  <MASTER>
        0    0    0    0    0    0    0    0   27    0   27    0

