__3ufo_A_rec_5fvp_wos_lig_min.pdb
 OpenBabel10201916073D

 22 24  0  0  0  0  0  0  0  0999 V2000
    9.9920    1.0380   24.2900 C   0  0  0  0  0  0  0  0  0  0  0  0
    7.0990    3.2650   26.4710 C   0  0  0  0  0  0  0  0  0  0  0  0
    6.7520    2.8060   25.2060 C   0  0  0  0  0  0  0  0  0  0  0  0
    7.6550    2.0740   24.4410 C   0  0  0  0  0  0  0  0  0  0  0  0
    8.9030    1.8170   24.9950 C   0  0  0  0  0  0  0  0  0  0  0  0
    9.1870    2.3000   26.2650 C   0  0  0  0  0  0  0  0  0  0  0  0
    8.3040    3.0050   26.9750 N   0  0  0  0  0  0  0  0  0  0  0  0
    5.4890    3.1220   24.7100 N   0  0  0  0  0  0  0  0  0  0  0  0
    4.2820    2.9400   25.4910 C   0  0  0  0  0  0  0  0  0  0  0  0
    3.9450    4.3840   25.8600 C   0  0  0  0  0  0  0  0  0  0  0  0
    3.9620    5.2420   24.7090 O   0  0  0  0  0  0  0  0  0  0  0  0
    5.1790    5.1990   23.9600 C   0  0  0  0  0  0  0  0  0  0  0  0
    5.3780    3.7850   23.4330 C   0  0  0  0  0  0  0  0  0  0  0  0
   11.2840    1.7540   24.6820 C   0  0  0  0  0  0  0  0  0  0  0  0
   13.7480    2.4370   20.2960 C   0  0  0  0  0  0  0  0  0  0  0  0
   12.4500    1.5190   23.7530 C   0  0  0  0  0  0  0  0  0  0  0  0
   12.5180    2.1040   22.4910 C   0  0  0  0  0  0  0  0  0  0  0  0
   13.6340    1.8650   21.6880 C   0  0  0  0  0  0  0  0  0  0  0  0
   14.6500    1.0620   22.1700 C   0  0  0  0  0  0  0  0  0  0  0  0
   14.5480    0.5220   23.4440 C   0  0  0  0  0  0  0  0  0  0  0  0
   15.5350   -0.2570   23.9350 N   0  0  0  0  0  0  0  0  0  0  0  0
   13.4660    0.7580   24.1990 N   0  0  0  0  0  0  0  0  0  0  0  0
  1 14  1  0  0  0  0
  1  5  1  0  0  0  0
  2  3  2  0  0  0  0
  2  7  1  0  0  0  0
  3  4  1  0  0  0  0
  3  8  1  0  0  0  0
  4  5  2  0  0  0  0
  5  6  1  0  0  0  0
  6  7  2  0  0  0  0
  8 13  1  0  0  0  0
  8  9  1  0  0  0  0
  9 10  1  0  0  0  0
 10 11  1  0  0  0  0
 11 12  1  0  0  0  0
 12 13  1  0  0  0  0
 14 16  1  0  0  0  0
 15 18  1  0  0  0  0
 16 17  2  0  0  0  0
 16 22  1  0  0  0  0
 17 18  1  0  0  0  0
 18 19  2  0  0  0  0
 19 20  1  0  0  0  0
 20 21  1  0  0  0  0
 20 22  2  0  0  0  0
M  END
>  <COMPND>
    UNNAMED

>  <AUTHOR>
    GENERATED BY OPEN BABEL 2.4.90

>  <MASTER>
        0    0    0    0    0    0    0    0   22    0   22    0

