__4d2y_A_rec_4v3x_4e8_lig_min.pdb
 OpenBabel10201904523D

 24 26  0  0  0  0  0  0  0  0999 V2000
    8.3820    2.8070   25.0430 C   0  0  0  0  0  0  0  0  0  0  0  0
    7.5960    3.3210   26.1750 N   0  0  0  0  0  0  0  0  0  0  0  0
    6.5810    2.2920   26.5650 C   0  0  0  0  0  0  0  0  0  0  0  0
    5.6090    2.8280   27.6270 C   0  0  0  0  0  0  0  0  0  0  0  0
    4.6730    3.7920   26.9080 C   0  0  0  0  0  0  0  0  0  0  0  0
    3.5850    4.3550   27.7850 C   0  0  0  0  0  0  0  0  0  0  0  0
    3.7760    5.6580   28.2450 C   0  0  0  0  0  0  0  0  0  0  0  0
    2.8140    6.2590   29.0670 C   0  0  0  0  0  0  0  0  0  0  0  0
    1.6390    5.5440   29.4250 C   0  0  0  0  0  0  0  0  0  0  0  0
    1.4360    4.2300   28.9630 C   0  0  0  0  0  0  0  0  0  0  0  0
    2.4180    3.6450   28.1380 C   0  0  0  0  0  0  0  0  0  0  0  0
    3.0670    7.5310   29.4790 F   0  0  0  0  0  0  0  0  0  0  0  0
    8.8390    1.3630   25.3150 C   0  0  0  0  0  0  0  0  0  0  0  0
   11.1800    0.2530   22.0340 N   0  0  0  0  0  0  0  0  0  0  0  0
   11.7320    1.0380   23.0000 C   0  0  0  0  0  0  0  0  0  0  0  0
   10.9820    1.3680   24.1010 N   0  0  0  0  0  0  0  0  0  0  0  0
    9.6980    0.9560   24.1710 C   0  0  0  0  0  0  0  0  0  0  0  0
    9.1380    0.1640   23.1820 C   0  0  0  0  0  0  0  0  0  0  0  0
    9.9060   -0.1810   22.0910 C   0  0  0  0  0  0  0  0  0  0  0  0
   14.9400    2.1030   23.5210 N   0  0  0  0  0  0  0  0  0  0  0  0
   13.6670    1.9430   23.9150 C   0  0  0  0  0  0  0  0  0  0  0  0
   13.0280    1.3850   22.8910 N   0  0  0  0  0  0  0  0  0  0  0  0
   13.7730    1.1900   21.7900 C   0  0  0  0  0  0  0  0  0  0  0  0
   15.0020    1.6810   22.2170 C   0  0  0  0  0  0  0  0  0  0  0  0
  1 13  1  0  0  0  0
  1  2  1  0  0  0  0
  2  3  1  0  0  0  0
  3  4  1  0  0  0  0
  4  5  1  0  0  0  0
  5  6  1  0  0  0  0
  6 11  2  0  0  0  0
  6  7  1  0  0  0  0
  7  8  2  0  0  0  0
  8  9  1  0  0  0  0
  8 12  1  0  0  0  0
  9 10  2  0  0  0  0
 10 11  1  0  0  0  0
 13 17  1  0  0  0  0
 14 19  1  0  0  0  0
 14 15  2  0  0  0  0
 15 22  1  0  0  0  0
 15 16  1  0  0  0  0
 16 17  2  0  0  0  0
 17 18  1  0  0  0  0
 18 19  2  0  0  0  0
 20 24  1  0  0  0  0
 20 21  2  0  0  0  0
 21 22  1  0  0  0  0
 22 23  1  0  0  0  0
 23 24  2  0  0  0  0
M  END
>  <COMPND>
    UNNAMED

>  <AUTHOR>
    GENERATED BY OPEN BABEL 2.4.90

>  <MASTER>
        0    0    0    0    0    0    0    0   24    0   24    0

