__4d3b_A_rec_4v3x_4e8_lig_min.pdb
 OpenBabel10201909073D

 24 26  0  0  0  0  0  0  0  0999 V2000
    8.0180    2.6340   25.0140 C   0  0  0  0  0  0  0  0  0  0  0  0
    7.3560    3.2630   26.1670 N   0  0  0  0  0  0  0  0  0  0  0  0
    6.7970    2.1880   27.0470 C   0  0  0  0  0  0  0  0  0  0  0  0
    5.5240    2.6530   27.7710 C   0  0  0  0  0  0  0  0  0  0  0  0
    5.1030    3.9580   27.1060 C   0  0  0  0  0  0  0  0  0  0  0  0
    4.0520    4.7210   27.8720 C   0  0  0  0  0  0  0  0  0  0  0  0
    4.4180    5.9910   28.3210 C   0  0  0  0  0  0  0  0  0  0  0  0
    3.5020    6.7690   29.0420 C   0  0  0  0  0  0  0  0  0  0  0  0
    2.1990    6.2690   29.3080 C   0  0  0  0  0  0  0  0  0  0  0  0
    1.8210    4.9900   28.8560 C   0  0  0  0  0  0  0  0  0  0  0  0
    2.7580    4.2240   28.1330 C   0  0  0  0  0  0  0  0  0  0  0  0
    3.9270    7.9960   29.4490 F   0  0  0  0  0  0  0  0  0  0  0  0
    8.8410    1.4130   25.4620 C   0  0  0  0  0  0  0  0  0  0  0  0
   11.2980    0.4390   22.2230 N   0  0  0  0  0  0  0  0  0  0  0  0
   11.7710    1.2920   23.1740 C   0  0  0  0  0  0  0  0  0  0  0  0
   10.9850    1.5790   24.2630 N   0  0  0  0  0  0  0  0  0  0  0  0
    9.7410    1.0570   24.3340 C   0  0  0  0  0  0  0  0  0  0  0  0
    9.2620    0.1980   23.3590 C   0  0  0  0  0  0  0  0  0  0  0  0
   10.0660   -0.1030   22.2820 C   0  0  0  0  0  0  0  0  0  0  0  0
   14.7470    2.9390   23.5220 N   0  0  0  0  0  0  0  0  0  0  0  0
   13.4460    2.7730   23.8050 C   0  0  0  0  0  0  0  0  0  0  0  0
   13.0330    1.7480   23.0670 N   0  0  0  0  0  0  0  0  0  0  0  0
   13.9600    1.2190   22.2510 C   0  0  0  0  0  0  0  0  0  0  0  0
   15.0560    2.0210   22.5510 C   0  0  0  0  0  0  0  0  0  0  0  0
  1 13  1  0  0  0  0
  1  2  1  0  0  0  0
  2  3  1  0  0  0  0
  3  4  1  0  0  0  0
  4  5  1  0  0  0  0
  5  6  1  0  0  0  0
  6 11  2  0  0  0  0
  6  7  1  0  0  0  0
  7  8  2  0  0  0  0
  8  9  1  0  0  0  0
  8 12  1  0  0  0  0
  9 10  2  0  0  0  0
 10 11  1  0  0  0  0
 13 17  1  0  0  0  0
 14 19  1  0  0  0  0
 14 15  2  0  0  0  0
 15 22  1  0  0  0  0
 15 16  1  0  0  0  0
 16 17  2  0  0  0  0
 17 18  1  0  0  0  0
 18 19  2  0  0  0  0
 20 24  1  0  0  0  0
 20 21  2  0  0  0  0
 21 22  1  0  0  0  0
 22 23  1  0  0  0  0
 23 24  2  0  0  0  0
M  END
>  <COMPND>
    UNNAMED

>  <AUTHOR>
    GENERATED BY OPEN BABEL 2.4.90

>  <MASTER>
        0    0    0    0    0    0    0    0   24    0   24    0

