__4ims_A_rec_3rqj_h4b_lig_min.pdb
 OpenBabel10201905583D

 17 18  0  0  1  0  0  0  0  0999 V2000
    9.9590    2.4530   33.9800 N   0  0  0  0  0  4  0  0  0  0  0  0
   10.2140    2.0950   32.7070 C   0  0  0  0  0  0  0  0  0  0  0  0
   11.5080    1.9290   32.2820 N   0  0  0  0  0  0  0  0  0  0  0  0
    9.2030    1.9120   31.8350 N   0  0  0  0  0  0  0  0  0  0  0  0
    7.9230    2.0780   32.2340 C   0  0  0  0  0  0  0  0  0  0  0  0
    7.0180    1.8670   31.3940 O   0  0  0  0  0  0  0  0  0  0  0  0
    7.6400    2.4690   33.5410 C   0  0  2  0  0  0  0  0  0  0  0  0
    8.7030    2.6670   34.4190 C   0  0  0  0  0  0  0  0  0  0  0  0
    6.3700    2.6520   34.0210 N   0  0  0  0  0  0  0  0  0  0  0  0
    8.5090    3.0460   35.7020 N   0  0  0  0  0  0  0  0  0  0  0  0
    6.2170    3.5430   35.1680 C   0  0  2  0  0  0  0  0  0  0  0  0
    7.1800    3.2190   36.2860 C   0  0  0  0  0  0  0  0  0  0  0  0
    4.7700    3.6610   35.6570 C   0  0  1  0  0  0  0  0  0  0  0  0
    4.3260    2.3910   36.1550 O   0  0  0  0  0  0  0  0  0  0  0  0
    4.6070    4.7190   36.7390 C   0  0  2  0  0  0  0  0  0  0  0  0
    3.3130    4.4210   37.4960 C   0  0  0  0  0  0  0  0  0  0  0  0
    4.4490    6.0120   36.1370 O   0  0  0  0  0  0  0  0  0  0  0  0
  1  2  2  0  0  0  0
  1  8  2  0  0  0  0
  2  4  1  0  0  0  0
  2  3  1  0  0  0  0
  4  5  1  0  0  0  0
  5  6  2  0  0  0  0
  7  5  1  1  0  0  0
  7  9  1  0  0  0  0
  7  8  1  0  0  0  0
  8 10  1  0  0  0  0
  9 11  1  0  0  0  0
 10 12  1  0  0  0  0
 11 13  1  1  0  0  0
 11 12  1  0  0  0  0
 13 14  1  1  0  0  0
 13 15  1  0  0  0  0
 15 17  1  0  0  0  0
 15 16  1  6  0  0  0
M  END
>  <COMPND>
    UNNAMED

>  <AUTHOR>
    GENERATED BY OPEN BABEL 2.4.90

>  <MASTER>
        0    0    0    0    0    0    0    0   17    0   17    0

