__4imu_A_rec_5fvp_wos_lig_min.pdb
 OpenBabel10201907503D

 22 24  0  0  0  0  0  0  0  0999 V2000
    9.5750    0.9090   23.9180 C   0  0  0  0  0  0  0  0  0  0  0  0
    6.7060    2.6710   26.5150 C   0  0  0  0  0  0  0  0  0  0  0  0
    6.4120    2.6190   25.1580 C   0  0  0  0  0  0  0  0  0  0  0  0
    7.3110    2.0580   24.2560 C   0  0  0  0  0  0  0  0  0  0  0  0
    8.4990    1.5480   24.7670 C   0  0  0  0  0  0  0  0  0  0  0  0
    8.7300    1.6270   26.1330 C   0  0  0  0  0  0  0  0  0  0  0  0
    7.8530    2.1770   26.9760 N   0  0  0  0  0  0  0  0  0  0  0  0
    5.2110    3.1700   24.7180 N   0  0  0  0  0  0  0  0  0  0  0  0
    4.0540    3.2950   25.5820 C   0  0  0  0  0  0  0  0  0  0  0  0
    4.0560    4.7970   25.8660 C   0  0  0  0  0  0  0  0  0  0  0  0
    4.1670    5.5640   24.6590 O   0  0  0  0  0  0  0  0  0  0  0  0
    5.2890    5.2200   23.8420 C   0  0  0  0  0  0  0  0  0  0  0  0
    5.1470    3.7680   23.4070 C   0  0  0  0  0  0  0  0  0  0  0  0
   10.8840    1.3870   24.5430 C   0  0  0  0  0  0  0  0  0  0  0  0
   13.4620    2.5580   20.3280 C   0  0  0  0  0  0  0  0  0  0  0  0
   12.0930    1.2890   23.6430 C   0  0  0  0  0  0  0  0  0  0  0  0
   12.1750    1.9810   22.4380 C   0  0  0  0  0  0  0  0  0  0  0  0
   13.3290    1.8650   21.6620 C   0  0  0  0  0  0  0  0  0  0  0  0
   14.3670    1.0740   22.1150 C   0  0  0  0  0  0  0  0  0  0  0  0
   14.2490    0.4230   23.3340 C   0  0  0  0  0  0  0  0  0  0  0  0
   15.2570   -0.3460   23.7970 N   0  0  0  0  0  0  0  0  0  0  0  0
   13.1310    0.5420   24.0630 N   0  0  0  0  0  0  0  0  0  0  0  0
  1 14  1  0  0  0  0
  1  5  1  0  0  0  0
  2  3  2  0  0  0  0
  2  7  1  0  0  0  0
  3  4  1  0  0  0  0
  3  8  1  0  0  0  0
  4  5  2  0  0  0  0
  5  6  1  0  0  0  0
  6  7  2  0  0  0  0
  8 13  1  0  0  0  0
  8  9  1  0  0  0  0
  9 10  1  0  0  0  0
 10 11  1  0  0  0  0
 11 12  1  0  0  0  0
 12 13  1  0  0  0  0
 14 16  1  0  0  0  0
 15 18  1  0  0  0  0
 16 17  2  0  0  0  0
 16 22  1  0  0  0  0
 17 18  1  0  0  0  0
 18 19  2  0  0  0  0
 19 20  1  0  0  0  0
 20 21  1  0  0  0  0
 20 22  2  0  0  0  0
M  END
>  <COMPND>
    UNNAMED

>  <AUTHOR>
    GENERATED BY OPEN BABEL 2.4.90

>  <MASTER>
        0    0    0    0    0    0    0    0   22    0   22    0

