__4jsh_A_rec_3png_h4b_lig_docked.pdb
 OpenBabel10201919573D

 17 18  0  0  1  0  0  0  0  0999 V2000
    9.7460    2.6630   34.0000 N   0  0  0  0  0  4  0  0  0  0  0  0
   10.0140    2.2410   32.7400 C   0  0  0  0  0  0  0  0  0  0  0  0
   11.3490    2.1000   32.3140 N   0  0  0  0  0  0  0  0  0  0  0  0
    8.9700    1.9810   31.9090 N   0  0  0  0  0  0  0  0  0  0  0  0
    7.6800    2.1390   32.2790 C   0  0  0  0  0  0  0  0  0  0  0  0
    6.7710    1.8010   31.4500 O   0  0  0  0  0  0  0  0  0  0  0  0
    7.3850    2.5950   33.5670 C   0  0  2  0  0  0  0  0  0  0  0  0
    8.4350    2.8520   34.4080 C   0  0  0  0  0  0  0  0  0  0  0  0
    6.0740    2.7680   34.0640 N   0  0  0  0  0  0  0  0  0  0  0  0
    8.2620    3.3300   35.6600 N   0  0  0  0  0  0  0  0  0  0  0  0
    6.0170    3.7670   35.1240 C   0  0  2  0  0  0  0  0  0  0  0  0
    6.9570    3.5030   36.2860 C   0  0  0  0  0  0  0  0  0  0  0  0
    4.5980    3.9360   35.6210 C   0  0  1  0  0  0  0  0  0  0  0  0
    4.1920    2.6560   36.1070 O   0  0  0  0  0  0  0  0  0  0  0  0
    4.4600    4.9740   36.7180 C   0  0  2  0  0  0  0  0  0  0  0  0
    3.1320    4.7250   37.4700 C   0  0  0  0  0  0  0  0  0  0  0  0
    4.3300    6.2670   36.1320 O   0  0  0  0  0  0  0  0  0  0  0  0
  1  2  2  0  0  0  0
  1  8  2  0  0  0  0
  2  4  1  0  0  0  0
  2  3  1  0  0  0  0
  4  5  1  0  0  0  0
  5  6  2  0  0  0  0
  7  5  1  1  0  0  0
  7  9  1  0  0  0  0
  7  8  1  0  0  0  0
  8 10  1  0  0  0  0
  9 11  1  0  0  0  0
 10 12  1  0  0  0  0
 11 13  1  1  0  0  0
 11 12  1  0  0  0  0
 13 14  1  1  0  0  0
 13 15  1  0  0  0  0
 15 17  1  0  0  0  0
 15 16  1  6  0  0  0
M  END
>  <MODEL>
       1

>  <COMPND>
    UNNAMED

>  <AUTHOR>
    GENERATED BY OPEN BABEL 2.4.90

>  <MASTER>
        0    0    0    0    0    0    0    0   17    0   17    0

