__4kcj_A_rec_4kco_5h4_lig_min.pdb
 OpenBabel10201910283D

 27 29  0  0  0  0  0  0  0  0999 V2000
    9.7650    2.5200   24.9050 C   0  0  0  0  0  0  0  0  0  0  0  0
   10.4770    3.3690   25.7500 C   0  0  0  0  0  0  0  0  0  0  0  0
   11.8920    3.1190   25.9140 C   0  0  0  0  0  0  0  0  0  0  0  0
   12.4310    2.0320   25.2410 C   0  0  0  0  0  0  0  0  0  0  0  0
   11.7050    1.1980   24.3870 C   0  0  0  0  0  0  0  0  0  0  0  0
   10.3270    1.4400   24.2250 C   0  0  0  0  0  0  0  0  0  0  0  0
   12.2700    0.1380   23.7490 N   0  0  0  0  0  0  0  0  0  0  0  0
   13.4970    0.2220   23.1960 C   0  0  0  0  0  0  0  0  0  0  0  0
   14.4530   -0.5630   23.6950 N   0  0  0  0  0  0  0  0  0  0  0  0
   13.7610    1.2090   22.0870 C   0  0  0  0  0  0  0  0  0  0  0  0
   15.2230    2.1310   22.2650 S   0  0  0  0  0  0  0  0  0  0  0  0
   15.0110    3.0750   20.8090 C   0  0  0  0  0  0  0  0  0  0  0  0
   13.7790    2.6370   20.2850 C   0  0  0  0  0  0  0  0  0  0  0  0
   13.0830    1.6250   20.9650 C   0  0  0  0  0  0  0  0  0  0  0  0
    8.2730    2.7890   24.6670 C   0  0  0  0  0  0  0  0  0  0  0  0
    7.4260    2.3190   25.7750 N   0  0  0  0  0  0  0  0  0  0  0  0
    6.5950    1.1440   25.3640 C   0  0  0  0  0  0  0  0  0  0  0  0
    7.1730   -0.2000   25.7900 C   0  0  0  0  0  0  0  0  0  0  0  0
    6.4730    3.3950   26.1400 C   0  0  0  0  0  0  0  0  0  0  0  0
    5.6900    2.9990   27.4040 C   0  0  0  0  0  0  0  0  0  0  0  0
    1.4160    3.5770   29.6510 F   0  0  0  0  0  0  0  0  0  0  0  0
    2.3160    4.0370   28.7650 C   0  0  0  0  0  0  0  0  0  0  0  0
    2.0570    5.2260   28.0820 C   0  0  0  0  0  0  0  0  0  0  0  0
    2.9840    5.7030   27.1600 C   0  0  0  0  0  0  0  0  0  0  0  0
    4.1700    4.9880   26.9380 C   0  0  0  0  0  0  0  0  0  0  0  0
    3.4950    3.3160   28.5430 C   0  0  0  0  0  0  0  0  0  0  0  0
    4.4250    3.7910   27.6240 C   0  0  0  0  0  0  0  0  0  0  0  0
  1  2  2  0  0  0  0
  1  6  1  0  0  0  0
  1 15  1  0  0  0  0
  2  3  1  0  0  0  0
  3  4  2  0  0  0  0
  4  5  1  0  0  0  0
  5  7  1  0  0  0  0
  5  6  2  0  0  0  0
  7  8  1  0  0  0  0
  8 10  1  0  0  0  0
  8  9  2  0  0  0  0
 10 14  2  0  0  0  0
 10 11  1  0  0  0  0
 11 12  1  0  0  0  0
 12 13  2  0  0  0  0
 13 14  1  0  0  0  0
 15 16  1  0  0  0  0
 16 17  1  0  0  0  0
 16 19  1  0  0  0  0
 17 18  1  0  0  0  0
 19 20  1  0  0  0  0
 20 27  1  0  0  0  0
 21 22  1  0  0  0  0
 22 23  2  0  0  0  0
 22 26  1  0  0  0  0
 23 24  1  0  0  0  0
 24 25  2  0  0  0  0
 25 27  1  0  0  0  0
 26 27  2  0  0  0  0
M  END
>  <COMPND>
    UNNAMED

>  <AUTHOR>
    GENERATED BY OPEN BABEL 2.4.90

>  <MASTER>
        0    0    0    0    0    0    0    0   27    0   27    0

