__4kck_A_rec_1vag_arr_lig_min.pdb
 OpenBabel10201916073D

 25 27  0  0  0  0  0  0  0  0999 V2000
   11.3040    1.2240   24.2230 C   0  0  0  0  0  0  0  0  0  0  0  0
   11.7840    2.4540   24.8200 C   0  0  0  0  0  0  0  0  0  0  0  0
   10.8820    3.4290   25.3050 C   0  0  0  0  0  0  0  0  0  0  0  0
    9.4830    3.2130   25.2170 C   0  0  0  0  0  0  0  0  0  0  0  0
    9.0170    2.0010   24.6260 C   0  0  0  0  0  0  0  0  0  0  0  0
    9.8960    1.0030   24.1270 C   0  0  0  0  0  0  0  0  0  0  0  0
   12.1640    0.2510   23.7290 N   0  0  0  0  0  0  0  0  0  0  0  0
   13.4050    0.4430   23.1830 C   0  0  0  0  0  0  0  0  0  0  0  0
   14.3710   -0.2620   23.6970 N   0  0  0  0  0  0  0  0  0  0  0  0
   14.8370    2.0700   21.9030 S   0  0  0  0  0  0  0  0  0  0  0  0
   14.4860    2.7070   20.6240 C   0  0  0  0  0  0  0  0  0  0  0  0
   13.3000    2.3290   20.1670 C   0  0  0  0  0  0  0  0  0  0  0  0
   12.7740    1.4690   21.0280 C   0  0  0  0  0  0  0  0  0  0  0  0
   13.6260    1.2520   22.0730 C   0  0  0  0  0  0  0  0  0  0  0  0
    8.5110    4.2460   25.7250 C   0  0  0  0  0  0  0  0  0  0  0  0
    7.4510    3.6390   26.6470 C   0  0  0  0  0  0  0  0  0  0  0  0
    6.3560    4.5640   26.7690 N   0  0  0  0  0  0  0  0  0  0  0  0
    5.0850    3.9310   27.0530 C   0  0  0  0  0  0  0  0  0  0  0  0
    3.9300    4.9100   26.9230 C   0  0  0  0  0  0  0  0  0  0  0  0
    3.4550    5.3200   25.6280 C   0  0  0  0  0  0  0  0  0  0  0  0
    2.3710    6.2390   25.5090 C   0  0  0  0  0  0  0  0  0  0  0  0
    1.7470    6.7570   26.6820 C   0  0  0  0  0  0  0  0  0  0  0  0
    2.2090    6.3570   27.9730 C   0  0  0  0  0  0  0  0  0  0  0  0
    3.2910    5.4430   28.0880 C   0  0  0  0  0  0  0  0  0  0  0  0
    1.8120    6.7220   23.9470 Cl  0  0  0  0  0  0  0  0  0  0  0  0
  1  7  1  0  0  0  0
  1  6  2  0  0  0  0
  1  2  1  0  0  0  0
  2  3  2  0  0  0  0
  3  4  1  0  0  0  0
  4  5  2  0  0  0  0
  4 15  1  0  0  0  0
  5  6  1  0  0  0  0
  7  8  1  0  0  0  0
  8 14  1  0  0  0  0
  8  9  2  0  0  0  0
 10 11  1  0  0  0  0
 10 14  1  0  0  0  0
 11 12  2  0  0  0  0
 12 13  1  0  0  0  0
 13 14  2  0  0  0  0
 15 16  1  0  0  0  0
 16 17  1  0  0  0  0
 17 18  1  0  0  0  0
 18 19  1  0  0  0  0
 19 20  2  0  0  0  0
 19 24  1  0  0  0  0
 20 21  1  0  0  0  0
 21 25  1  0  0  0  0
 21 22  2  0  0  0  0
 22 23  1  0  0  0  0
 23 24  2  0  0  0  0
M  END
>  <COMPND>
    UNNAMED

>  <AUTHOR>
    GENERATED BY OPEN BABEL 2.4.90

>  <MASTER>
        0    0    0    0    0    0    0    0   25    0   25    0

