__4kcn_A_rec_1vag_arr_lig_min.pdb
 OpenBabel10201911503D

 25 27  0  0  0  0  0  0  0  0999 V2000
   11.0160    1.0250   23.9380 C   0  0  0  0  0  0  0  0  0  0  0  0
   11.4190    2.3330   24.4160 C   0  0  0  0  0  0  0  0  0  0  0  0
   10.4570    3.2920   24.8110 C   0  0  0  0  0  0  0  0  0  0  0  0
    9.0740    2.9840   24.7470 C   0  0  0  0  0  0  0  0  0  0  0  0
    8.6850    1.6950   24.2740 C   0  0  0  0  0  0  0  0  0  0  0  0
    9.6260    0.7100   23.8680 C   0  0  0  0  0  0  0  0  0  0  0  0
   11.9360    0.0650   23.5350 N   0  0  0  0  0  0  0  0  0  0  0  0
   13.2210    0.2750   23.1100 C   0  0  0  0  0  0  0  0  0  0  0  0
   14.1370   -0.4580   23.6740 N   0  0  0  0  0  0  0  0  0  0  0  0
   14.8090    1.8730   21.9880 S   0  0  0  0  0  0  0  0  0  0  0  0
   14.5530    2.6100   20.7410 C   0  0  0  0  0  0  0  0  0  0  0  0
   13.3630    2.3450   20.2190 C   0  0  0  0  0  0  0  0  0  0  0  0
   12.7470    1.4720   21.0040 C   0  0  0  0  0  0  0  0  0  0  0  0
   13.5390    1.1330   22.0620 C   0  0  0  0  0  0  0  0  0  0  0  0
    8.0400    3.9980   25.1590 C   0  0  0  0  0  0  0  0  0  0  0  0
    7.2090    3.5250   26.3540 C   0  0  0  0  0  0  0  0  0  0  0  0
    6.0740    4.3950   26.5050 N   0  0  0  0  0  0  0  0  0  0  0  0
    5.1740    4.0020   27.5690 C   0  0  0  0  0  0  0  0  0  0  0  0
    3.8040    4.6410   27.4080 C   0  0  0  0  0  0  0  0  0  0  0  0
    3.3210    5.0270   26.1090 C   0  0  0  0  0  0  0  0  0  0  0  0
    2.0350    5.6250   25.9600 C   0  0  0  0  0  0  0  0  0  0  0  0
    1.2150    5.8420   27.1070 C   0  0  0  0  0  0  0  0  0  0  0  0
    1.6840    5.4620   28.4010 C   0  0  0  0  0  0  0  0  0  0  0  0
    2.9670    4.8680   28.5470 C   0  0  0  0  0  0  0  0  0  0  0  0
    1.4690    6.0840   24.3940 Cl  0  0  0  0  0  0  0  0  0  0  0  0
  1  7  1  0  0  0  0
  1  6  2  0  0  0  0
  1  2  1  0  0  0  0
  2  3  2  0  0  0  0
  3  4  1  0  0  0  0
  4  5  2  0  0  0  0
  4 15  1  0  0  0  0
  5  6  1  0  0  0  0
  7  8  1  0  0  0  0
  8 14  1  0  0  0  0
  8  9  2  0  0  0  0
 10 11  1  0  0  0  0
 10 14  1  0  0  0  0
 11 12  2  0  0  0  0
 12 13  1  0  0  0  0
 13 14  2  0  0  0  0
 15 16  1  0  0  0  0
 16 17  1  0  0  0  0
 17 18  1  0  0  0  0
 18 19  1  0  0  0  0
 19 20  2  0  0  0  0
 19 24  1  0  0  0  0
 20 21  1  0  0  0  0
 21 25  1  0  0  0  0
 21 22  2  0  0  0  0
 22 23  1  0  0  0  0
 23 24  2  0  0  0  0
M  END
>  <COMPND>
    UNNAMED

>  <AUTHOR>
    GENERATED BY OPEN BABEL 2.4.90

>  <MASTER>
        0    0    0    0    0    0    0    0   25    0   25    0

