__4v3w_A_rec_4v3v_s8f_lig_min.pdb
 OpenBabel10201903113D

 23 25  0  0  0  0  0  0  0  0999 V2000
    9.0900    1.6460   25.4270 C   0  0  0  0  0  0  0  0  0  0  0  0
   11.0660    0.3060   21.9330 N   0  0  0  0  0  0  0  0  0  0  0  0
   11.6980    1.1340   22.8350 C   0  0  0  0  0  0  0  0  0  0  0  0
   11.0290    1.4820   23.9640 N   0  0  0  0  0  0  0  0  0  0  0  0
    9.7540    1.1270   24.1900 C   0  0  0  0  0  0  0  0  0  0  0  0
    9.0950    0.3350   23.2720 C   0  0  0  0  0  0  0  0  0  0  0  0
    9.7840   -0.0900   22.1270 C   0  0  0  0  0  0  0  0  0  0  0  0
   14.8600    2.2980   23.3310 N   0  0  0  0  0  0  0  0  0  0  0  0
   13.5780    2.2110   23.7190 C   0  0  0  0  0  0  0  0  0  0  0  0
   12.9910    1.5160   22.7310 N   0  0  0  0  0  0  0  0  0  0  0  0
   13.7640    1.1340   21.7350 C   0  0  0  0  0  0  0  0  0  0  0  0
   14.9620    1.6790   22.1150 C   0  0  0  0  0  0  0  0  0  0  0  0
    8.1470    2.6250   24.8920 N   0  0  0  0  0  0  0  0  0  0  0  0
    6.9070    2.4880   25.6610 C   0  0  0  0  0  0  0  0  0  0  0  0
    6.8430    3.6110   26.6890 C   0  0  0  0  0  0  0  0  0  0  0  0
    6.0640    3.1750   27.9250 C   0  0  0  0  0  0  0  0  0  0  0  0
    4.7390    3.9020   28.0200 C   0  0  0  0  0  0  0  0  0  0  0  0
    3.5960    3.1080   28.1630 C   0  0  0  0  0  0  0  0  0  0  0  0
    2.3430    3.7170   28.2720 C   0  0  0  0  0  0  0  0  0  0  0  0
    2.2380    5.1230   28.2510 C   0  0  0  0  0  0  0  0  0  0  0  0
    3.3850    5.9220   28.1080 C   0  0  0  0  0  0  0  0  0  0  0  0
    4.6440    5.3130   27.9920 C   0  0  0  0  0  0  0  0  0  0  0  0
    1.2630    2.9190   28.4090 F   0  0  0  0  0  0  0  0  0  0  0  0
  1  5  1  0  0  0  0
  1 13  1  0  0  0  0
  2  7  1  0  0  0  0
  2  3  2  0  0  0  0
  3 10  1  0  0  0  0
  3  4  1  0  0  0  0
  4  5  2  0  0  0  0
  5  6  1  0  0  0  0
  6  7  2  0  0  0  0
  8 12  1  0  0  0  0
  8  9  2  0  0  0  0
  9 10  1  0  0  0  0
 10 11  1  0  0  0  0
 11 12  2  0  0  0  0
 13 14  1  0  0  0  0
 14 15  1  0  0  0  0
 15 16  1  0  0  0  0
 16 17  1  0  0  0  0
 17 22  2  0  0  0  0
 17 18  1  0  0  0  0
 18 19  2  0  0  0  0
 19 20  1  0  0  0  0
 19 23  1  0  0  0  0
 20 21  2  0  0  0  0
 21 22  1  0  0  0  0
M  END
>  <COMPND>
    UNNAMED

>  <AUTHOR>
    GENERATED BY OPEN BABEL 2.4.90

>  <MASTER>
        0    0    0    0    0    0    0    0   23    0   23    0

