__4v3x_A_rec_5fvp_wos_lig_min.pdb
 OpenBabel10201916153D

 22 24  0  0  0  0  0  0  0  0999 V2000
   10.6970    1.2820   24.1690 C   0  0  0  0  0  0  0  0  0  0  0  0
    7.4760    2.5910   26.6170 C   0  0  0  0  0  0  0  0  0  0  0  0
    7.3110    2.6450   25.2380 C   0  0  0  0  0  0  0  0  0  0  0  0
    8.3290    2.2330   24.3830 C   0  0  0  0  0  0  0  0  0  0  0  0
    9.5020    1.7630   24.9620 C   0  0  0  0  0  0  0  0  0  0  0  0
    9.6010    1.7300   26.3450 C   0  0  0  0  0  0  0  0  0  0  0  0
    8.6120    2.1370   27.1430 N   0  0  0  0  0  0  0  0  0  0  0  0
    6.1150    3.1490   24.7330 N   0  0  0  0  0  0  0  0  0  0  0  0
    4.9540    3.3740   25.5700 C   0  0  0  0  0  0  0  0  0  0  0  0
    4.9620    4.8980   25.6870 C   0  0  0  0  0  0  0  0  0  0  0  0
    5.0840    5.5270   24.4030 O   0  0  0  0  0  0  0  0  0  0  0  0
    6.2090    5.0890   23.6370 C   0  0  0  0  0  0  0  0  0  0  0  0
    6.0620    3.5980   23.3630 C   0  0  0  0  0  0  0  0  0  0  0  0
   11.8660    2.1000   24.7140 C   0  0  0  0  0  0  0  0  0  0  0  0
   15.1090    3.2110   20.9680 C   0  0  0  0  0  0  0  0  0  0  0  0
   13.1710    1.9170   23.9760 C   0  0  0  0  0  0  0  0  0  0  0  0
   13.4900    2.6630   22.8450 C   0  0  0  0  0  0  0  0  0  0  0  0
   14.7220    2.4620   22.2200 C   0  0  0  0  0  0  0  0  0  0  0  0
   15.5990    1.5340   22.7480 C   0  0  0  0  0  0  0  0  0  0  0  0
   15.2470    0.8330   23.8910 C   0  0  0  0  0  0  0  0  0  0  0  0
   16.0960   -0.0700   24.4260 N   0  0  0  0  0  0  0  0  0  0  0  0
   14.0570    1.0350   24.4740 N   0  0  0  0  0  0  0  0  0  0  0  0
  1 14  1  0  0  0  0
  1  5  1  0  0  0  0
  2  3  2  0  0  0  0
  2  7  1  0  0  0  0
  3  4  1  0  0  0  0
  3  8  1  0  0  0  0
  4  5  2  0  0  0  0
  5  6  1  0  0  0  0
  6  7  2  0  0  0  0
  8 13  1  0  0  0  0
  8  9  1  0  0  0  0
  9 10  1  0  0  0  0
 10 11  1  0  0  0  0
 11 12  1  0  0  0  0
 12 13  1  0  0  0  0
 14 16  1  0  0  0  0
 15 18  1  0  0  0  0
 16 17  2  0  0  0  0
 16 22  1  0  0  0  0
 17 18  1  0  0  0  0
 18 19  2  0  0  0  0
 19 20  1  0  0  0  0
 20 21  1  0  0  0  0
 20 22  2  0  0  0  0
M  END
>  <COMPND>
    UNNAMED

>  <AUTHOR>
    GENERATED BY OPEN BABEL 2.4.90

>  <MASTER>
        0    0    0    0    0    0    0    0   22    0   22    0

