__5fvo_A_rec_3png_h4b_lig_min.pdb
 OpenBabel10201915333D

 17 18  0  0  1  0  0  0  0  0999 V2000
   10.4900    2.1220   33.7170 N   0  0  0  0  0  4  0  0  0  0  0  0
   10.7190    1.5930   32.4900 C   0  0  0  0  0  0  0  0  0  0  0  0
   12.0340    1.2910   32.0870 N   0  0  0  0  0  0  0  0  0  0  0  0
    9.6560    1.3840   31.6670 N   0  0  0  0  0  0  0  0  0  0  0  0
    8.3870    1.6940   32.0130 C   0  0  0  0  0  0  0  0  0  0  0  0
    7.4510    1.3950   31.1990 O   0  0  0  0  0  0  0  0  0  0  0  0
    8.1360    2.2610   33.2660 C   0  0  2  0  0  0  0  0  0  0  0  0
    9.2040    2.4670   34.0980 C   0  0  0  0  0  0  0  0  0  0  0  0
    6.8470    2.5970   33.7380 N   0  0  0  0  0  0  0  0  0  0  0  0
    9.0750    3.0420   35.3150 N   0  0  0  0  0  0  0  0  0  0  0  0
    6.8870    3.6640   34.7300 C   0  0  2  0  0  0  0  0  0  0  0  0
    7.7920    3.3850   35.9160 C   0  0  0  0  0  0  0  0  0  0  0  0
    5.4910    4.0060   35.2010 C   0  0  1  0  0  0  0  0  0  0  0  0
    4.8540    2.7620   35.4940 O   0  0  0  0  0  0  0  0  0  0  0  0
    5.4660    4.9020   36.4250 C   0  0  2  0  0  0  0  0  0  0  0  0
    4.1690    4.6190   37.2180 C   0  0  0  0  0  0  0  0  0  0  0  0
    5.3740    6.2630   36.0130 O   0  0  0  0  0  0  0  0  0  0  0  0
  1  2  2  0  0  0  0
  1  8  2  0  0  0  0
  2  4  1  0  0  0  0
  2  3  1  0  0  0  0
  4  5  1  0  0  0  0
  5  6  2  0  0  0  0
  7  5  1  1  0  0  0
  7  9  1  0  0  0  0
  7  8  1  0  0  0  0
  8 10  1  0  0  0  0
  9 11  1  0  0  0  0
 10 12  1  0  0  0  0
 11 13  1  1  0  0  0
 11 12  1  0  0  0  0
 13 14  1  1  0  0  0
 13 15  1  0  0  0  0
 15 17  1  0  0  0  0
 15 16  1  1  0  0  0
M  END
>  <COMPND>
    UNNAMED

>  <AUTHOR>
    GENERATED BY OPEN BABEL 2.4.90

>  <MASTER>
        0    0    0    0    0    0    0    0   17    0   17    0

