__5fvo_A_rec_3rqj_h4b_lig_min.pdb
 OpenBabel10201910243D

 17 18  0  0  1  0  0  0  0  0999 V2000
   10.4790    2.1340   33.7290 N   0  0  0  0  0  4  0  0  0  0  0  0
   10.7070    1.5910   32.5180 C   0  0  0  0  0  0  0  0  0  0  0  0
   11.9850    1.2710   32.1330 N   0  0  0  0  0  0  0  0  0  0  0  0
    9.6860    1.3700   31.6670 N   0  0  0  0  0  0  0  0  0  0  0  0
    8.4220    1.6850   32.0260 C   0  0  0  0  0  0  0  0  0  0  0  0
    7.5040    1.4330   31.2110 O   0  0  0  0  0  0  0  0  0  0  0  0
    8.1690    2.2670   33.2660 C   0  0  2  0  0  0  0  0  0  0  0  0
    9.2430    2.4990   34.1210 C   0  0  0  0  0  0  0  0  0  0  0  0
    6.9160    2.6090   33.7030 N   0  0  0  0  0  0  0  0  0  0  0  0
    9.0770    3.0590   35.3400 N   0  0  0  0  0  0  0  0  0  0  0  0
    6.8300    3.6540   34.7190 C   0  0  2  0  0  0  0  0  0  0  0  0
    7.7640    3.4100   35.8810 C   0  0  0  0  0  0  0  0  0  0  0  0
    5.3960    3.9460   35.1720 C   0  0  1  0  0  0  0  0  0  0  0  0
    4.7190    2.7120   35.4470 O   0  0  0  0  0  0  0  0  0  0  0  0
    5.3460    4.8420   36.4020 C   0  0  2  0  0  0  0  0  0  0  0  0
    4.0040    4.6120   37.0950 C   0  0  0  0  0  0  0  0  0  0  0  0
    5.3810    6.2190   36.0040 O   0  0  0  0  0  0  0  0  0  0  0  0
  1  2  2  0  0  0  0
  1  8  2  0  0  0  0
  2  4  1  0  0  0  0
  2  3  1  0  0  0  0
  4  5  1  0  0  0  0
  5  6  2  0  0  0  0
  7  5  1  1  0  0  0
  7  9  1  0  0  0  0
  7  8  1  0  0  0  0
  8 10  1  0  0  0  0
  9 11  1  0  0  0  0
 10 12  1  0  0  0  0
 11 13  1  1  0  0  0
 11 12  1  0  0  0  0
 13 14  1  1  0  0  0
 13 15  1  0  0  0  0
 15 17  1  0  0  0  0
 15 16  1  6  0  0  0
M  END
>  <COMPND>
    UNNAMED

>  <AUTHOR>
    GENERATED BY OPEN BABEL 2.4.90

>  <MASTER>
        0    0    0    0    0    0    0    0   17    0   17    0

