__5fw0_A_rec_5fw0_w30_lig_min.pdb
 OpenBabel10201914343D

 22 23  0  0  0  0  0  0  0  0999 V2000
    9.8990    0.6900   23.7670 C   0  0  0  0  0  0  0  0  0  0  0  0
    6.2660    0.8220   26.0200 C   0  0  0  0  0  0  0  0  0  0  0  0
    6.8650    2.0230   25.6380 C   0  0  0  0  0  0  0  0  0  0  0  0
    8.0500    2.0080   24.9060 C   0  0  0  0  0  0  0  0  0  0  0  0
    8.6090    0.7800   24.5600 C   0  0  0  0  0  0  0  0  0  0  0  0
    7.9680   -0.3830   24.9780 C   0  0  0  0  0  0  0  0  0  0  0  0
    6.8270   -0.3450   25.6840 N   0  0  0  0  0  0  0  0  0  0  0  0
    6.2820    3.2520   25.9850 N   0  0  0  0  0  0  0  0  0  0  0  0
    5.5380    3.3870   27.2330 C   0  0  0  0  0  0  0  0  0  0  0  0
    6.4280    4.3870   25.0790 C   0  0  0  0  0  0  0  0  0  0  0  0
    5.2020    4.4200   24.1810 C   0  0  0  0  0  0  0  0  0  0  0  0
    5.6390    4.3040   22.8280 O   0  0  0  0  0  0  0  0  0  0  0  0
    5.5690    2.9710   22.3210 C   0  0  0  0  0  0  0  0  0  0  0  0
   10.9860    1.5740   24.3770 C   0  0  0  0  0  0  0  0  0  0  0  0
   13.7960    2.7100   20.3420 C   0  0  0  0  0  0  0  0  0  0  0  0
   12.2610    1.3970   23.5700 C   0  0  0  0  0  0  0  0  0  0  0  0
   12.4440    2.1060   22.3820 C   0  0  0  0  0  0  0  0  0  0  0  0
   13.6100    1.9340   21.6410 C   0  0  0  0  0  0  0  0  0  0  0  0
   14.5770    1.0400   22.1040 C   0  0  0  0  0  0  0  0  0  0  0  0
   14.3640    0.3460   23.3060 C   0  0  0  0  0  0  0  0  0  0  0  0
   15.2740   -0.5390   23.7970 N   0  0  0  0  0  0  0  0  0  0  0  0
   13.2170    0.5380   23.9960 N   0  0  0  0  0  0  0  0  0  0  0  0
  1  5  1  0  0  0  0
  1 14  1  0  0  0  0
  2  7  2  0  0  0  0
  2  3  1  0  0  0  0
  3  4  2  0  0  0  0
  3  8  1  0  0  0  0
  4  5  1  0  0  0  0
  5  6  2  0  0  0  0
  6  7  1  0  0  0  0
  8 10  1  0  0  0  0
  8  9  1  0  0  0  0
 10 11  1  0  0  0  0
 11 12  1  0  0  0  0
 12 13  1  0  0  0  0
 14 16  1  0  0  0  0
 15 18  1  0  0  0  0
 16 17  2  0  0  0  0
 16 22  1  0  0  0  0
 17 18  1  0  0  0  0
 18 19  2  0  0  0  0
 19 20  1  0  0  0  0
 20 21  1  0  0  0  0
 20 22  2  0  0  0  0
M  END
>  <COMPND>
    UNNAMED

>  <AUTHOR>
    GENERATED BY OPEN BABEL 2.4.90

>  <MASTER>
        0    0    0    0    0    0    0    0   22    0   22    0

