__5unv_A_rec_3rqj_h4b_lig_docked.pdb
 OpenBabel10201919523D

 17 18  0  0  1  0  0  0  0  0999 V2000
    9.6870    2.5510   34.4600 N   0  0  0  0  0  4  0  0  0  0  0  0
   10.0550    1.9210   33.3280 C   0  0  0  0  0  0  0  0  0  0  0  0
   11.3810    1.6890   33.0650 N   0  0  0  0  0  0  0  0  0  0  0  0
    9.1250    1.5270   32.4350 N   0  0  0  0  0  0  0  0  0  0  0  0
    7.8150    1.7530   32.6720 C   0  0  0  0  0  0  0  0  0  0  0  0
    6.9890    1.3410   31.8260 O   0  0  0  0  0  0  0  0  0  0  0  0
    7.4170    2.4220   33.8280 C   0  0  2  0  0  0  0  0  0  0  0  0
    8.3970    2.8330   34.7280 C   0  0  0  0  0  0  0  0  0  0  0  0
    6.1090    2.6830   34.1410 N   0  0  0  0  0  0  0  0  0  0  0  0
    8.0890    3.4860   35.8700 N   0  0  0  0  0  0  0  0  0  0  0  0
    5.8540    3.8060   35.0400 C   0  0  2  0  0  0  0  0  0  0  0  0
    6.7130    3.7600   36.2820 C   0  0  0  0  0  0  0  0  0  0  0  0
    4.3690    4.0020   35.3620 C   0  0  1  0  0  0  0  0  0  0  0  0
    3.7770    2.7360   35.6870 O   0  0  0  0  0  0  0  0  0  0  0  0
    4.1470    4.9790   36.5080 C   0  0  2  0  0  0  0  0  0  0  0  0
    3.0040    4.4420   37.3680 C   0  0  0  0  0  0  0  0  0  0  0  0
    3.7210    6.2480   35.9910 O   0  0  0  0  0  0  0  0  0  0  0  0
  1  2  2  0  0  0  0
  1  8  2  0  0  0  0
  2  4  1  0  0  0  0
  2  3  1  0  0  0  0
  4  5  1  0  0  0  0
  5  6  2  0  0  0  0
  7  5  1  1  0  0  0
  7  9  1  0  0  0  0
  7  8  1  0  0  0  0
  8 10  1  0  0  0  0
  9 11  1  0  0  0  0
 10 12  1  0  0  0  0
 11 13  1  1  0  0  0
 11 12  1  0  0  0  0
 13 14  1  1  0  0  0
 13 15  1  0  0  0  0
 15 17  1  0  0  0  0
 15 16  1  1  0  0  0
M  END
>  <MODEL>
       1

>  <COMPND>
    UNNAMED

>  <AUTHOR>
    GENERATED BY OPEN BABEL 2.4.90

>  <MASTER>
        0    0    0    0    0    0    0    0   17    0   17    0

