__5unx_A_rec_3nlw_3xf_lig_min.pdb
 OpenBabel10201900183D

 28 30  0  0  1  0  0  0  0  0999 V2000
    9.6580   -1.7610   24.8460 N   0  0  0  0  0  0  0  0  0  0  0  0
    8.6070   -0.8880   25.3480 C   0  0  0  0  0  0  0  0  0  0  0  0
    8.4650    0.1480   24.2140 C   0  0  2  0  0  0  0  0  0  0  0  0
    9.8190    0.1970   23.5080 C   0  0  2  0  0  0  0  0  0  0  0  0
   10.2890   -1.2550   23.6130 C   0  0  0  0  0  0  0  0  0  0  0  0
    8.0860    1.4280   24.6940 O   0  0  0  0  0  0  0  0  0  0  0  0
    6.7190    1.6790   24.3840 C   0  0  0  0  0  0  0  0  0  0  0  0
    6.5640    3.1700   24.1650 C   0  0  0  0  0  0  0  0  0  0  0  0
    6.2130    3.8710   25.3830 N   0  0  0  0  0  0  0  0  0  0  0  0
    4.8710    4.4090   25.5280 C   0  0  0  0  0  0  0  0  0  0  0  0
    4.1890    3.7400   26.7170 C   0  0  0  0  0  0  0  0  0  0  0  0
    4.1960    2.4260   26.5580 F   0  0  0  0  0  0  0  0  0  0  0  0
    4.8660    4.0350   27.8150 F   0  0  0  0  0  0  0  0  0  0  0  0
    2.6170    5.6360   26.9000 N   0  0  0  0  0  0  0  0  0  0  0  0
    2.7320    4.1860   26.8400 C   0  0  2  0  0  0  0  0  0  0  0  0
    1.9890    3.5020   28.0030 C   0  0  0  0  0  0  0  0  0  0  0  0
    0.5200    3.9280   28.1160 C   0  0  0  0  0  0  0  0  0  0  0  0
    0.2470    5.3600   27.6330 C   0  0  0  0  0  0  0  0  0  0  0  0
    1.4980    6.2460   27.6080 C   0  0  0  0  0  0  0  0  0  0  0  0
   10.8010    1.1860   24.1650 C   0  0  0  0  0  0  0  0  0  0  0  0
   13.1660    0.3950   23.8880 N   0  0  0  0  0  0  0  0  0  0  0  0
   12.1450    1.1580   23.4330 C   0  0  0  0  0  0  0  0  0  0  0  0
   12.3160    1.9090   22.2730 C   0  0  0  0  0  0  0  0  0  0  0  0
   13.5030    1.8820   21.5740 C   0  0  0  0  0  0  0  0  0  0  0  0
   14.5510    1.0870   22.0560 C   0  0  0  0  0  0  0  0  0  0  0  0
   14.3450    0.3540   23.2390 C   0  0  0  0  0  0  0  0  0  0  0  0
   15.2960   -0.4440   23.7420 N   0  0  0  0  0  0  0  0  0  0  0  0
   13.6180    2.7250   20.3110 C   0  0  0  0  0  0  0  0  0  0  0  0
  1  5  1  0  0  0  0
  1  2  1  0  0  0  0
  2  3  1  0  0  0  0
  3  4  1  0  0  0  0
  3  6  1  1  0  0  0
  4  5  1  0  0  0  0
  4 20  1  1  0  0  0
  6  7  1  0  0  0  0
  7  8  1  0  0  0  0
  8  9  1  0  0  0  0
  9 10  1  0  0  0  0
 10 11  1  0  0  0  0
 11 12  1  0  0  0  0
 11 13  1  0  0  0  0
 14 15  1  0  0  0  0
 14 19  1  0  0  0  0
 15 11  1  1  0  0  0
 15 16  1  0  0  0  0
 16 17  1  0  0  0  0
 17 18  1  0  0  0  0
 18 19  1  0  0  0  0
 20 22  1  0  0  0  0
 21 26  2  0  0  0  0
 21 22  1  0  0  0  0
 22 23  2  0  0  0  0
 23 24  1  0  0  0  0
 24 28  1  0  0  0  0
 24 25  2  0  0  0  0
 25 26  1  0  0  0  0
 26 27  1  0  0  0  0
M  END
>  <COMPND>
    UNNAMED

>  <AUTHOR>
    GENERATED BY OPEN BABEL 2.4.90

>  <MASTER>
        0    0    0    0    0    0    0    0   28    0   28    0

