__5unx_A_rec_3png_h4b_lig_min.pdb
 OpenBabel10191922293D

 17 18  0  0  1  0  0  0  0  0999 V2000
   10.1890    2.4230   34.1450 N   0  0  0  0  0  4  0  0  0  0  0  0
   10.4320    1.8880   32.9240 C   0  0  0  0  0  0  0  0  0  0  0  0
   11.7580    1.7010   32.4890 N   0  0  0  0  0  0  0  0  0  0  0  0
    9.3710    1.5620   32.1380 N   0  0  0  0  0  0  0  0  0  0  0  0
    8.0890    1.7600   32.5150 C   0  0  0  0  0  0  0  0  0  0  0  0
    7.1630    1.3570   31.7360 O   0  0  0  0  0  0  0  0  0  0  0  0
    7.8200    2.3320   33.7630 C   0  0  2  0  0  0  0  0  0  0  0  0
    8.8860    2.6560   34.5580 C   0  0  0  0  0  0  0  0  0  0  0  0
    6.5190    2.5570   34.2660 N   0  0  0  0  0  0  0  0  0  0  0  0
    8.7380    3.2450   35.7650 N   0  0  0  0  0  0  0  0  0  0  0  0
    6.4870    3.6470   35.2330 C   0  0  2  0  0  0  0  0  0  0  0  0
    7.4460    3.4820   36.3970 C   0  0  0  0  0  0  0  0  0  0  0  0
    5.0780    3.8690   35.7380 C   0  0  1  0  0  0  0  0  0  0  0  0
    4.5670    2.5770   36.0720 O   0  0  0  0  0  0  0  0  0  0  0  0
    5.0040    4.7830   36.9460 C   0  0  2  0  0  0  0  0  0  0  0  0
    3.5790    4.7020   37.5410 C   0  0  0  0  0  0  0  0  0  0  0  0
    5.1660    6.1350   36.5260 O   0  0  0  0  0  0  0  0  0  0  0  0
  1  2  2  0  0  0  0
  1  8  2  0  0  0  0
  2  4  1  0  0  0  0
  2  3  1  0  0  0  0
  4  5  1  0  0  0  0
  5  6  2  0  0  0  0
  7  5  1  1  0  0  0
  7  9  1  0  0  0  0
  7  8  1  0  0  0  0
  8 10  1  0  0  0  0
  9 11  1  0  0  0  0
 10 12  1  0  0  0  0
 11 13  1  1  0  0  0
 11 12  1  0  0  0  0
 13 14  1  1  0  0  0
 13 15  1  0  0  0  0
 15 17  1  0  0  0  0
 15 16  1  6  0  0  0
M  END
>  <COMPND>
    UNNAMED

>  <AUTHOR>
    GENERATED BY OPEN BABEL 2.4.90

>  <MASTER>
        0    0    0    0    0    0    0    0   17    0   17    0

