__5vuo_A_rec_1vag_arr_lig_min.pdb
 OpenBabel10201915443D

 25 27  0  0  0  0  0  0  0  0999 V2000
   10.6340    1.3650   24.1810 C   0  0  0  0  0  0  0  0  0  0  0  0
   10.5910    2.7670   24.5490 C   0  0  0  0  0  0  0  0  0  0  0  0
    9.3580    3.4490   24.6750 C   0  0  0  0  0  0  0  0  0  0  0  0
    8.1370    2.7650   24.4450 C   0  0  0  0  0  0  0  0  0  0  0  0
    8.1880    1.3860   24.0820 C   0  0  0  0  0  0  0  0  0  0  0  0
    9.4090    0.6720   23.9440 C   0  0  0  0  0  0  0  0  0  0  0  0
   11.8290    0.6700   24.0410 N   0  0  0  0  0  0  0  0  0  0  0  0
   13.0840    1.1990   23.8970 C   0  0  0  0  0  0  0  0  0  0  0  0
   13.8940    1.0310   24.9020 N   0  0  0  0  0  0  0  0  0  0  0  0
   14.6650    2.7160   22.6590 S   0  0  0  0  0  0  0  0  0  0  0  0
   14.6180    3.0200   21.2200 C   0  0  0  0  0  0  0  0  0  0  0  0
   13.6340    2.3920   20.5900 C   0  0  0  0  0  0  0  0  0  0  0  0
   12.9720    1.6600   21.4750 C   0  0  0  0  0  0  0  0  0  0  0  0
   13.5260    1.7870   22.7160 C   0  0  0  0  0  0  0  0  0  0  0  0
    6.8180    3.4810   24.5700 C   0  0  0  0  0  0  0  0  0  0  0  0
    5.9360    2.8800   25.6670 C   0  0  0  0  0  0  0  0  0  0  0  0
    5.7760    3.8500   26.7180 N   0  0  0  0  0  0  0  0  0  0  0  0
    5.0470    3.3530   27.8660 C   0  0  0  0  0  0  0  0  0  0  0  0
    3.7270    4.0840   28.0490 C   0  0  0  0  0  0  0  0  0  0  0  0
    3.3700    5.1840   27.1950 C   0  0  0  0  0  0  0  0  0  0  0  0
    2.1310    5.8680   27.3690 C   0  0  0  0  0  0  0  0  0  0  0  0
    1.2320    5.4590   28.3970 C   0  0  0  0  0  0  0  0  0  0  0  0
    1.5750    4.3660   29.2520 C   0  0  0  0  0  0  0  0  0  0  0  0
    2.8110    3.6880   29.0770 C   0  0  0  0  0  0  0  0  0  0  0  0
    1.7170    7.1890   26.3340 Cl  0  0  0  0  0  0  0  0  0  0  0  0
  1  7  1  0  0  0  0
  1  6  2  0  0  0  0
  1  2  1  0  0  0  0
  2  3  2  0  0  0  0
  3  4  1  0  0  0  0
  4  5  2  0  0  0  0
  4 15  1  0  0  0  0
  5  6  1  0  0  0  0
  7  8  1  0  0  0  0
  8 14  1  0  0  0  0
  8  9  2  0  0  0  0
 10 11  1  0  0  0  0
 10 14  1  0  0  0  0
 11 12  2  0  0  0  0
 12 13  1  0  0  0  0
 13 14  2  0  0  0  0
 15 16  1  0  0  0  0
 16 17  1  0  0  0  0
 17 18  1  0  0  0  0
 18 19  1  0  0  0  0
 19 20  2  0  0  0  0
 19 24  1  0  0  0  0
 20 21  1  0  0  0  0
 21 25  1  0  0  0  0
 21 22  2  0  0  0  0
 22 23  1  0  0  0  0
 23 24  2  0  0  0  0
M  END
>  <COMPND>
    UNNAMED

>  <AUTHOR>
    GENERATED BY OPEN BABEL 2.4.90

>  <MASTER>
        0    0    0    0    0    0    0    0   25    0   25    0

