__5vus_A_rec_4jsh_q15_lig_min.pdb
 OpenBabel10201901533D

 24 26  0  0  0  0  0  0  0  0999 V2000
    9.5660    3.6560   24.8100 C   0  0  0  0  0  0  0  0  0  0  0  0
    8.8640    2.5010   25.1770 C   0  0  0  0  0  0  0  0  0  0  0  0
    7.4850    2.4100   25.0300 C   0  0  0  0  0  0  0  0  0  0  0  0
    6.8030    3.4880   24.4990 C   0  0  0  0  0  0  0  0  0  0  0  0
    7.5000    4.6440   24.1460 C   0  0  0  0  0  0  0  0  0  0  0  0
    8.8840    4.7410   24.2940 C   0  0  0  0  0  0  0  0  0  0  0  0
   10.9230    3.7810   24.9690 O   0  0  0  0  0  0  0  0  0  0  0  0
   11.7200    2.6820   25.3980 C   0  0  0  0  0  0  0  0  0  0  0  0
   14.9580   -0.4800   23.7940 N   0  0  0  0  0  0  0  0  0  0  0  0
   14.0730    0.4930   23.4960 C   0  0  0  0  0  0  0  0  0  0  0  0
   13.8580    0.8830   22.1860 C   0  0  0  0  0  0  0  0  0  0  0  0
   12.9380    1.8890   21.8980 C   0  0  0  0  0  0  0  0  0  0  0  0
   12.6910    2.3040   20.4660 C   0  0  0  0  0  0  0  0  0  0  0  0
   13.3750    1.0790   24.4920 N   0  0  0  0  0  0  0  0  0  0  0  0
   12.4750    2.0650   24.2320 C   0  0  0  0  0  0  0  0  0  0  0  0
   12.2320    2.4920   22.9210 C   0  0  0  0  0  0  0  0  0  0  0  0
    6.8120    1.2520   25.3460 O   0  0  0  0  0  0  0  0  0  0  0  0
    6.2100    0.9260   26.6110 C   0  0  0  0  0  0  0  0  0  0  0  0
    6.6780   -0.4760   27.0260 C   0  0  0  0  0  0  0  0  0  0  0  0
    5.7480   -1.0570   28.0930 C   0  0  0  0  0  0  0  0  0  0  0  0
    6.5070   -1.9060   29.1150 C   0  0  0  0  0  0  0  0  0  0  0  0
    7.6140   -1.1920   29.7460 N   0  0  0  0  0  0  0  0  0  0  0  0
    8.3850   -0.2340   28.9880 C   0  0  0  0  0  0  0  0  0  0  0  0
    8.1530   -0.4230   27.4840 C   0  0  0  0  0  0  0  0  0  0  0  0
  1  6  2  0  0  0  0
  1  7  1  0  0  0  0
  1  2  1  0  0  0  0
  2  3  2  0  0  0  0
  3  4  1  0  0  0  0
  3 17  1  0  0  0  0
  4  5  2  0  0  0  0
  5  6  1  0  0  0  0
  7  8  1  0  0  0  0
  8 15  1  0  0  0  0
  9 10  1  0  0  0  0
 10 11  2  0  0  0  0
 10 14  1  0  0  0  0
 11 12  1  0  0  0  0
 12 13  1  0  0  0  0
 12 16  2  0  0  0  0
 14 15  2  0  0  0  0
 15 16  1  0  0  0  0
 17 18  1  0  0  0  0
 18 19  1  0  0  0  0
 19 24  1  0  0  0  0
 19 20  1  0  0  0  0
 20 21  1  0  0  0  0
 21 22  1  0  0  0  0
 22 23  1  0  0  0  0
 23 24  1  0  0  0  0
M  END
>  <COMPND>
    UNNAMED

>  <AUTHOR>
    GENERATED BY OPEN BABEL 2.4.90

>  <MASTER>
        0    0    0    0    0    0    0    0   24    0   24    0

