__2a3b_B_rec_2iuz_d1h_lig_docked.pdb
 OpenBabel10181906193D

 28 31  0  0  0  0  0  0  0  0999 V2000
   94.2610   67.5250   -9.3010 C   0  0  0  0  0  0  0  0  0  0  0  0
   96.6710   66.2930   -9.8700 O   0  0  0  0  0  0  0  0  0  0  0  0
   95.6820   65.7580  -10.3700 C   0  0  0  0  0  0  0  0  0  0  0  0
   95.8070   64.5790  -11.1030 C   0  0  0  0  0  0  0  0  0  0  0  0
   96.8090   63.7710  -11.4400 N   0  0  0  0  0  0  0  0  0  0  0  0
   98.2460   63.9800  -11.1550 C   0  0  0  0  0  0  0  0  0  0  0  0
   96.3480   62.7310  -12.1300 C   0  0  0  0  0  0  0  0  0  0  0  0
   95.0290   62.8580  -12.2350 N   0  0  0  0  0  0  0  0  0  0  0  0
   94.6640   63.9780  -11.6180 C   0  0  0  0  0  0  0  0  0  0  0  0
   93.3960   64.5440  -11.4230 N   0  0  0  0  0  0  0  0  0  0  0  0
   92.2040   63.8830  -12.0040 C   0  0  0  0  0  0  0  0  0  0  0  0
   93.2650   65.7330  -10.6930 C   0  0  0  0  0  0  0  0  0  0  0  0
   92.1590   66.2190  -10.4560 O   0  0  0  0  0  0  0  0  0  0  0  0
   94.4160   66.3300  -10.1630 N   0  0  0  0  0  0  0  0  0  0  0  0
   94.4070   67.0200   -7.8650 C   0  0  0  0  0  0  0  0  0  0  0  0
   93.8090   67.9610   -6.8940 N   0  0  0  0  0  0  0  0  0  0  0  0
   94.6470   68.6130   -5.9770 C   0  0  0  0  0  0  0  0  0  0  0  0
   95.8530   68.6990   -6.2020 O   0  0  0  0  0  0  0  0  0  0  0  0
   94.1050   69.2020   -4.8400 C   0  0  0  0  0  0  0  0  0  0  0  0
   94.6260   69.7900   -3.7710 N   0  0  0  0  0  0  0  0  0  0  0  0
   96.0620   70.0830   -3.5640 C   0  0  0  0  0  0  0  0  0  0  0  0
   93.6610   70.1070   -2.9140 C   0  0  0  0  0  0  0  0  0  0  0  0
   92.5020   69.7160   -3.4390 N   0  0  0  0  0  0  0  0  0  0  0  0
   92.7340   69.1530   -4.6220 C   0  0  0  0  0  0  0  0  0  0  0  0
   91.8840   68.5440   -5.5530 N   0  0  0  0  0  0  0  0  0  0  0  0
   90.4280   68.4980   -5.2940 C   0  0  0  0  0  0  0  0  0  0  0  0
   92.4190   67.9580   -6.7100 C   0  0  0  0  0  0  0  0  0  0  0  0
   91.6860   67.5230   -7.5980 O   0  0  0  0  0  0  0  0  0  0  0  0
  1 14  1  0  0  0  0
  1 15  1  0  0  0  0
  2  3  2  0  0  0  0
  3  4  1  0  0  0  0
  3 14  1  0  0  0  0
  4  9  2  0  0  0  0
  4  5  1  0  0  0  0
  5  7  1  0  0  0  0
  5  6  1  0  0  0  0
  7  8  2  0  0  0  0
  8  9  1  0  0  0  0
  9 10  1  0  0  0  0
 10 11  1  0  0  0  0
 10 12  1  0  0  0  0
 12 13  2  0  0  0  0
 12 14  1  0  0  0  0
 15 16  1  0  0  0  0
 16 27  1  0  0  0  0
 16 17  1  0  0  0  0
 17 18  2  0  0  0  0
 17 19  1  0  0  0  0
 19 24  2  0  0  0  0
 19 20  1  0  0  0  0
 20 21  1  0  0  0  0
 20 22  1  0  0  0  0
 22 23  2  0  0  0  0
 23 24  1  0  0  0  0
 24 25  1  0  0  0  0
 25 27  1  0  0  0  0
 25 26  1  0  0  0  0
 27 28  2  0  0  0  0
M  END
>  <MODEL>
       2

>  <COMPND>
    UNNAMED

>  <AUTHOR>
    GENERATED BY OPEN BABEL 2.4.90

>  <MASTER>
        0    0    0    0    0    0    0    0   28    0   28    0

