__2a3b_B_rec_2a3b_cff_lig_min.pdb
 OpenBabel10181905303D

 14 15  0  0  0  0  0  0  0  0999 V2000
   95.2190   64.9880  -10.8920 N   0  0  0  0  0  0  0  0  0  0  0  0
   93.8320   65.1930  -10.9270 C   0  0  0  0  0  0  0  0  0  0  0  0
   96.1140   66.0470  -10.3710 C   0  0  0  0  0  0  0  0  0  0  0  0
   95.7680   63.7860  -11.3610 C   0  0  0  0  0  0  0  0  0  0  0  0
   92.9960   64.1910  -11.4380 N   0  0  0  0  0  0  0  0  0  0  0  0
   93.3490   66.2440  -10.5080 O   0  0  0  0  0  0  0  0  0  0  0  0
   91.5340   64.4060  -11.5280 C   0  0  0  0  0  0  0  0  0  0  0  0
   93.5510   62.9910  -11.9030 C   0  0  0  0  0  0  0  0  0  0  0  0
   94.9250   62.7950  -11.8650 C   0  0  0  0  0  0  0  0  0  0  0  0
   93.0080   61.8960  -12.4310 N   0  0  0  0  0  0  0  0  0  0  0  0
   96.9800   63.5940  -11.3310 O   0  0  0  0  0  0  0  0  0  0  0  0
   95.1350   61.5890  -12.3740 N   0  0  0  0  0  0  0  0  0  0  0  0
   93.9770   61.0310  -12.7210 C   0  0  0  0  0  0  0  0  0  0  0  0
   96.4630   60.9580  -12.5380 C   0  0  0  0  0  0  0  0  0  0  0  0
  1  4  1  0  0  0  0
  1  2  1  0  0  0  0
  1  3  1  0  0  0  0
  2  5  1  0  0  0  0
  2  6  2  0  0  0  0
  4  9  1  0  0  0  0
  4 11  2  0  0  0  0
  5  8  1  0  0  0  0
  5  7  1  0  0  0  0
  8 10  1  0  0  0  0
  8  9  2  0  0  0  0
  9 12  1  0  0  0  0
 10 13  2  0  0  0  0
 12 13  1  0  0  0  0
 12 14  1  0  0  0  0
M  END
>  <COMPND>
    UNNAMED

>  <AUTHOR>
    GENERATED BY OPEN BABEL 2.4.90

>  <MASTER>
        0    0    0    0    0    0    0    0   14    0   14    0

