__3ch9_B_rec_3ch9_xrg_lig_min.pdb
 OpenBabel10181905233D

  9  8  0  0  0  0  0  0  0  0999 V2000
   89.6090   67.6180   -2.5760 C   0  0  0  0  0  0  0  0  0  0  0  0
   89.9840   68.2920   -3.8260 N   0  0  0  0  0  0  0  0  0  0  0  0
   90.9670   69.1890   -3.7720 C   0  0  0  0  0  0  0  0  0  0  0  0
   91.5160   69.4770   -2.7100 O   0  0  0  0  0  0  0  0  0  0  0  0
   91.2850   69.8040   -4.9200 N   0  0  0  0  0  0  0  0  0  0  0  0
   92.2370   70.7230   -5.0650 C   0  0  0  0  0  0  0  0  0  0  0  0
   93.4040   70.5800   -4.4440 N   0  0  0  0  0  0  0  0  0  0  0  0
   92.0340   71.7560   -5.8810 N   0  0  0  0  0  0  0  0  0  0  0  0
   93.1010   72.5190   -6.5470 C   0  0  0  0  0  0  0  0  0  0  0  0
  1  2  1  0  0  0  0
  2  3  1  0  0  0  0
  3  5  1  0  0  0  0
  3  4  2  0  0  0  0
  5  6  1  0  0  0  0
  6  8  1  0  0  0  0
  6  7  2  0  0  0  0
  8  9  1  0  0  0  0
M  END
>  <COMPND>
    UNNAMED

>  <AUTHOR>
    GENERATED BY OPEN BABEL 2.4.90

>  <MASTER>
        0    0    0    0    0    0    0    0    9    0    9    0

