__3ch9_B_rec_2iuz_d1h_lig_docked.pdb
 OpenBabel10181905463D

 28 31  0  0  0  0  0  0  0  0999 V2000
   94.1170   67.1290   -9.6520 C   0  0  0  0  0  0  0  0  0  0  0  0
   96.7640   66.4150  -10.0180 O   0  0  0  0  0  0  0  0  0  0  0  0
   95.9440   65.6340  -10.4980 C   0  0  0  0  0  0  0  0  0  0  0  0
   96.3600   64.4520  -11.1100 C   0  0  0  0  0  0  0  0  0  0  0  0
   97.5310   63.8600  -11.3340 N   0  0  0  0  0  0  0  0  0  0  0  0
   98.8700   64.4050  -11.0210 C   0  0  0  0  0  0  0  0  0  0  0  0
   97.3430   62.6890  -11.9360 C   0  0  0  0  0  0  0  0  0  0  0  0
   96.0360   62.5110  -12.0980 N   0  0  0  0  0  0  0  0  0  0  0  0
   95.4040   63.5720  -11.6030 C   0  0  0  0  0  0  0  0  0  0  0  0
   94.0350   63.8590  -11.5070 N   0  0  0  0  0  0  0  0  0  0  0  0
   93.0470   62.9040  -12.0620 C   0  0  0  0  0  0  0  0  0  0  0  0
   93.6100   65.0480  -10.8990 C   0  0  0  0  0  0  0  0  0  0  0  0
   92.4140   65.2970  -10.7480 O   0  0  0  0  0  0  0  0  0  0  0  0
   94.5730   65.9280  -10.3900 N   0  0  0  0  0  0  0  0  0  0  0  0
   94.0260   66.7040   -8.1870 C   0  0  0  0  0  0  0  0  0  0  0  0
   94.0430   67.8710   -7.2790 N   0  0  0  0  0  0  0  0  0  0  0  0
   95.2720   68.3260   -6.7810 C   0  0  0  0  0  0  0  0  0  0  0  0
   96.3170   68.0200   -7.3540 O   0  0  0  0  0  0  0  0  0  0  0  0
   95.3040   69.1580   -5.6680 C   0  0  0  0  0  0  0  0  0  0  0  0
   96.2800   69.6620   -4.9230 N   0  0  0  0  0  0  0  0  0  0  0  0
   97.7280   69.5260   -5.1960 C   0  0  0  0  0  0  0  0  0  0  0  0
   95.7650   70.3380   -3.9010 C   0  0  0  0  0  0  0  0  0  0  0  0
   94.4390   70.2650   -3.9880 N   0  0  0  0  0  0  0  0  0  0  0  0
   94.1170   69.5470   -5.0600 C   0  0  0  0  0  0  0  0  0  0  0  0
   92.8820   69.1350   -5.5770 N   0  0  0  0  0  0  0  0  0  0  0  0
   91.6320   69.5570   -4.9070 C   0  0  0  0  0  0  0  0  0  0  0  0
   92.8390   68.3060   -6.7070 C   0  0  0  0  0  0  0  0  0  0  0  0
   91.7690   68.0290   -7.2490 O   0  0  0  0  0  0  0  0  0  0  0  0
  1 14  1  0  0  0  0
  1 15  1  0  0  0  0
  2  3  2  0  0  0  0
  3  4  1  0  0  0  0
  3 14  1  0  0  0  0
  4  9  2  0  0  0  0
  4  5  1  0  0  0  0
  5  7  1  0  0  0  0
  5  6  1  0  0  0  0
  7  8  2  0  0  0  0
  8  9  1  0  0  0  0
  9 10  1  0  0  0  0
 10 11  1  0  0  0  0
 10 12  1  0  0  0  0
 12 13  2  0  0  0  0
 12 14  1  0  0  0  0
 15 16  1  0  0  0  0
 16 27  1  0  0  0  0
 16 17  1  0  0  0  0
 17 18  2  0  0  0  0
 17 19  1  0  0  0  0
 19 24  2  0  0  0  0
 19 20  1  0  0  0  0
 20 21  1  0  0  0  0
 20 22  1  0  0  0  0
 22 23  2  0  0  0  0
 23 24  1  0  0  0  0
 24 25  1  0  0  0  0
 25 27  1  0  0  0  0
 25 26  1  0  0  0  0
 27 28  2  0  0  0  0
M  END
>  <MODEL>
       3

>  <COMPND>
    UNNAMED

>  <AUTHOR>
    GENERATED BY OPEN BABEL 2.4.90

>  <MASTER>
        0    0    0    0    0    0    0    0   28    0   28    0

