__3chd_B_rec_3ch9_xrg_lig_min.pdb
 OpenBabel10181905013D

  9  8  0  0  0  0  0  0  0  0999 V2000
   89.5720   67.4500   -2.6030 C   0  0  0  0  0  0  0  0  0  0  0  0
   89.9160   68.2660   -3.7750 N   0  0  0  0  0  0  0  0  0  0  0  0
   90.9130   69.1380   -3.6480 C   0  0  0  0  0  0  0  0  0  0  0  0
   91.5020   69.2890   -2.5790 O   0  0  0  0  0  0  0  0  0  0  0  0
   91.2030   69.8840   -4.7230 N   0  0  0  0  0  0  0  0  0  0  0  0
   92.1640   70.8020   -4.7900 C   0  0  0  0  0  0  0  0  0  0  0  0
   93.3530   70.5670   -4.2440 N   0  0  0  0  0  0  0  0  0  0  0  0
   91.9450   71.9350   -5.4560 N   0  0  0  0  0  0  0  0  0  0  0  0
   92.7200   72.3830   -6.6230 C   0  0  0  0  0  0  0  0  0  0  0  0
  1  2  1  0  0  0  0
  2  3  1  0  0  0  0
  3  5  1  0  0  0  0
  3  4  2  0  0  0  0
  5  6  1  0  0  0  0
  6  8  1  0  0  0  0
  6  7  2  0  0  0  0
  8  9  1  0  0  0  0
M  END
>  <COMPND>
    UNNAMED

>  <AUTHOR>
    GENERATED BY OPEN BABEL 2.4.90

>  <MASTER>
        0    0    0    0    0    0    0    0    9    0    9    0

