__3che_B_rec_3ch9_xrg_lig_min.pdb
 OpenBabel10181904593D

  9  8  0  0  0  0  0  0  0  0999 V2000
   89.4720   67.6430   -2.2740 C   0  0  0  0  0  0  0  0  0  0  0  0
   89.8660   68.0790   -3.6210 N   0  0  0  0  0  0  0  0  0  0  0  0
   90.9260   68.8780   -3.7240 C   0  0  0  0  0  0  0  0  0  0  0  0
   91.5320   69.2730   -2.7300 O   0  0  0  0  0  0  0  0  0  0  0  0
   91.2610   69.2780   -4.9590 N   0  0  0  0  0  0  0  0  0  0  0  0
   92.2860   70.0700   -5.2620 C   0  0  0  0  0  0  0  0  0  0  0  0
   93.4990   69.8070   -4.7840 N   0  0  0  0  0  0  0  0  0  0  0  0
   92.1010   71.0950   -6.0920 N   0  0  0  0  0  0  0  0  0  0  0  0
   93.1070   72.1280   -6.3840 C   0  0  0  0  0  0  0  0  0  0  0  0
  1  2  1  0  0  0  0
  2  3  1  0  0  0  0
  3  5  1  0  0  0  0
  3  4  2  0  0  0  0
  5  6  1  0  0  0  0
  6  8  1  0  0  0  0
  6  7  2  0  0  0  0
  8  9  1  0  0  0  0
M  END
>  <COMPND>
    UNNAMED

>  <AUTHOR>
    GENERATED BY OPEN BABEL 2.4.90

>  <MASTER>
        0    0    0    0    0    0    0    0    9    0    9    0

