__2ias_A_rec_2gvv_di9_lig_docked.pdb
 OpenBabel10181917253D

 15 16  0  0  0  0  0  0  0  0999 V2000
    3.4830   -2.8140   17.1480 P   0  0  0  0  0  0  0  0  0  0  0  0
    3.9610   -4.1590   17.9220 N   0  0  0  0  0  0  0  0  0  0  0  0
    4.6010   -2.1140   16.4790 O   0  0  0  0  0  0  0  0  0  0  0  0
    2.3270   -3.2700   16.1230 O   0  0  0  0  0  0  0  0  0  0  0  0
    1.8110   -4.9990   14.5410 C   0  0  0  0  0  0  0  0  0  0  0  0
    0.3100   -5.0530   14.2470 C   0  0  0  0  0  0  0  0  0  0  0  0
   -0.2750   -4.1710   15.3480 C   0  0  0  0  0  0  0  0  0  0  0  0
    0.4870   -4.7610   16.5340 C   0  0  0  0  0  0  0  0  0  0  0  0
    1.9250   -4.6420   16.0280 C   0  0  0  0  0  0  0  0  0  0  0  0
    2.7580   -1.8990   18.2590 O   0  0  0  0  0  0  0  0  0  0  0  0
    2.6510   -2.3580   19.6090 C   0  0  0  0  0  0  0  0  0  0  0  0
    3.6740   -1.6180   20.4740 C   0  0  0  0  0  0  0  0  0  0  0  0
    2.9820   -0.2630   20.6110 C   0  0  0  0  0  0  0  0  0  0  0  0
    1.6260   -0.7520   21.1210 C   0  0  0  0  0  0  0  0  0  0  0  0
    1.2960   -1.8890   20.1510 C   0  0  0  0  0  0  0  0  0  0  0  0
  1  4  1  0  0  0  0
  1  3  2  0  0  0  0
  1  2  1  0  0  0  0
  1 10  1  0  0  0  0
  4  9  1  0  0  0  0
  5  6  1  0  0  0  0
  5  9  1  0  0  0  0
  6  7  1  0  0  0  0
  7  8  1  0  0  0  0
  8  9  1  0  0  0  0
 10 11  1  0  0  0  0
 11 12  1  0  0  0  0
 11 15  1  0  0  0  0
 12 13  1  0  0  0  0
 13 14  1  0  0  0  0
 14 15  1  0  0  0  0
M  END
>  <MODEL>
       2

>  <COMPND>
    UNNAMED

>  <AUTHOR>
    GENERATED BY OPEN BABEL 2.4.90

>  <MASTER>
        0    0    0    0    0    0    0    0   15    0   15    0

