__2ias_A_rec_2gvv_di9_lig_docked.pdb
 OpenBabel10181917253D

 15 16  0  0  0  0  0  0  0  0999 V2000
    3.5350   -3.2310   17.2980 P   0  0  0  0  0  0  0  0  0  0  0  0
    4.7710   -2.3430   16.7330 N   0  0  0  0  0  0  0  0  0  0  0  0
    3.9860   -4.4500   18.0050 O   0  0  0  0  0  0  0  0  0  0  0  0
    2.6650   -2.2500   18.2350 O   0  0  0  0  0  0  0  0  0  0  0  0
    1.2840   -1.8500   20.1540 C   0  0  0  0  0  0  0  0  0  0  0  0
    1.6670   -0.5420   20.8520 C   0  0  0  0  0  0  0  0  0  0  0  0
    3.0040   -0.1980   20.1980 C   0  0  0  0  0  0  0  0  0  0  0  0
    3.6660   -1.5700   20.3110 C   0  0  0  0  0  0  0  0  0  0  0  0
    2.6020   -2.4490   19.6520 C   0  0  0  0  0  0  0  0  0  0  0  0
    2.6110   -3.5640   16.0210 O   0  0  0  0  0  0  0  0  0  0  0  0
    1.9810   -4.8430   15.9050 C   0  0  0  0  0  0  0  0  0  0  0  0
    0.5800   -4.7700   16.5140 C   0  0  0  0  0  0  0  0  0  0  0  0
   -0.1590   -4.0220   15.4060 C   0  0  0  0  0  0  0  0  0  0  0  0
    0.2170   -4.9290   14.2330 C   0  0  0  0  0  0  0  0  0  0  0  0
    1.7270   -5.1000   14.4150 C   0  0  0  0  0  0  0  0  0  0  0  0
  1  4  1  0  0  0  0
  1  3  2  0  0  0  0
  1  2  1  0  0  0  0
  1 10  1  0  0  0  0
  4  9  1  0  0  0  0
  5  6  1  0  0  0  0
  5  9  1  0  0  0  0
  6  7  1  0  0  0  0
  7  8  1  0  0  0  0
  8  9  1  0  0  0  0
 10 11  1  0  0  0  0
 11 12  1  0  0  0  0
 11 15  1  0  0  0  0
 12 13  1  0  0  0  0
 13 14  1  0  0  0  0
 14 15  1  0  0  0  0
M  END
>  <MODEL>
       1

>  <COMPND>
    UNNAMED

>  <AUTHOR>
    GENERATED BY OPEN BABEL 2.4.90

>  <MASTER>
        0    0    0    0    0    0    0    0   15    0   15    0

