__3li3_A_rec_2gvv_di9_lig_docked.pdb
 OpenBabel10181917213D

 15 16  0  0  0  0  0  0  0  0999 V2000
    3.5010   -2.6000   17.1490 P   0  0  0  0  0  0  0  0  0  0  0  0
    4.0590   -3.8760   17.9830 N   0  0  0  0  0  0  0  0  0  0  0  0
    4.5580   -1.9250   16.3640 O   0  0  0  0  0  0  0  0  0  0  0  0
    2.2960   -3.1510   16.2320 O   0  0  0  0  0  0  0  0  0  0  0  0
    2.3900   -4.9440   14.6410 C   0  0  0  0  0  0  0  0  0  0  0  0
    1.0360   -5.1520   13.9570 C   0  0  0  0  0  0  0  0  0  0  0  0
    0.0960   -4.3170   14.8260 C   0  0  0  0  0  0  0  0  0  0  0  0
    0.5590   -4.8130   16.1940 C   0  0  0  0  0  0  0  0  0  0  0  0
    2.0640   -4.5570   16.0880 C   0  0  0  0  0  0  0  0  0  0  0  0
    2.8230   -1.6240   18.2370 O   0  0  0  0  0  0  0  0  0  0  0  0
    2.7050   -2.0400   19.6000 C   0  0  0  0  0  0  0  0  0  0  0  0
    3.6590   -1.2120   20.4630 C   0  0  0  0  0  0  0  0  0  0  0  0
    2.8880    0.1050   20.5320 C   0  0  0  0  0  0  0  0  0  0  0  0
    1.5490   -0.4440   21.0260 C   0  0  0  0  0  0  0  0  0  0  0  0
    1.3110   -1.6320   20.0890 C   0  0  0  0  0  0  0  0  0  0  0  0
  1  4  1  0  0  0  0
  1  3  2  0  0  0  0
  1  2  1  0  0  0  0
  1 10  1  0  0  0  0
  4  9  1  0  0  0  0
  5  6  1  0  0  0  0
  5  9  1  0  0  0  0
  6  7  1  0  0  0  0
  7  8  1  0  0  0  0
  8  9  1  0  0  0  0
 10 11  1  0  0  0  0
 11 12  1  0  0  0  0
 11 15  1  0  0  0  0
 12 13  1  0  0  0  0
 13 14  1  0  0  0  0
 14 15  1  0  0  0  0
M  END
>  <MODEL>
       3

>  <COMPND>
    UNNAMED

>  <AUTHOR>
    GENERATED BY OPEN BABEL 2.4.90

>  <MASTER>
        0    0    0    0    0    0    0    0   15    0   15    0

