__1ai5_A_rec_1ai5_mnp_lig_docked.pdb
 OpenBabel10201902333D

 13 13  0  0  0  0  0  0  0  0999 V2000
   19.3590    0.3510    3.4770 C   0  0  0  0  0  0  0  0  0  0  0  0
   20.3020    1.3010    3.1680 C   0  0  0  0  0  0  0  0  0  0  0  0
   21.1410    1.6490    4.1940 C   0  0  0  0  0  0  0  0  0  0  0  0
   21.1350    1.1640    5.4910 C   0  0  0  0  0  0  0  0  0  0  0  0
   20.1730    0.2440    5.7780 C   0  0  0  0  0  0  0  0  0  0  0  0
   19.3040   -0.1820    4.7640 C   0  0  0  0  0  0  0  0  0  0  0  0
   22.1070    2.6490    3.9900 N   0  0  0  0  0  0  0  0  0  0  0  0
   22.8550    2.5820    5.1890 O   0  0  0  0  0  0  0  0  0  0  0  0
   22.3030    3.4760    2.8930 O   0  0  0  0  0  0  0  0  0  0  0  0
   18.4390   -0.0150    2.3630 C   0  0  0  0  0  0  0  0  0  0  0  0
   19.0830   -0.6960    1.1580 C   0  0  0  0  0  0  0  0  0  0  0  0
   19.2060   -0.0060    0.1620 O   0  0  0  0  0  0  0  0  0  0  0  0
   19.4270   -1.8380    0.9800 O   0  0  0  0  0  0  0  0  0  0  0  0
  1 10  1  0  0  0  0
  1  2  2  0  0  0  0
  1  6  1  0  0  0  0
  2  3  1  0  0  0  0
  3  7  1  0  0  0  0
  3  4  2  0  0  0  0
  4  5  1  0  0  0  0
  5  6  2  0  0  0  0
  7  9  2  0  0  0  0
  7  8  2  0  0  0  0
 10 11  1  0  0  0  0
 11 13  2  0  0  0  0
 11 12  1  0  0  0  0
M  END
>  <MODEL>
       1

>  <COMPND>
    UNNAMED

>  <AUTHOR>
    GENERATED BY OPEN BABEL 2.4.90

>  <MASTER>
        0    0    0    0    0    0    0    0   13    0   13    0

