__1ai6_A_rec_1fxh_pac_lig_docked.pdb
 OpenBabel10201902343D

 10 10  0  0  0  0  0  0  0  0999 V2000
   16.4150    2.1730    3.8790 C   0  0  0  0  0  0  0  0  0  0  0  0
   16.9570    3.3370    3.2730 C   0  0  0  0  0  0  0  0  0  0  0  0
   18.2120    3.8460    3.6520 C   0  0  0  0  0  0  0  0  0  0  0  0
   18.8660    3.1230    4.6600 C   0  0  0  0  0  0  0  0  0  0  0  0
   18.3590    1.9630    5.2860 C   0  0  0  0  0  0  0  0  0  0  0  0
   17.1010    1.4700    4.8950 C   0  0  0  0  0  0  0  0  0  0  0  0
   15.0600    1.5750    3.5230 C   0  0  0  0  0  0  0  0  0  0  0  0
   15.2020    0.5220    2.4430 C   0  0  0  0  0  0  0  0  0  0  0  0
   14.0980   -0.1390    2.3400 O   0  0  0  0  0  0  0  0  0  0  0  0
   16.2250    0.3400    1.7760 O   0  0  0  0  0  0  0  0  0  0  0  0
  1  7  1  0  0  0  0
  1  2  2  0  0  0  0
  1  6  1  0  0  0  0
  2  3  1  0  0  0  0
  3  4  2  0  0  0  0
  4  5  1  0  0  0  0
  5  6  2  0  0  0  0
  7  8  1  0  0  0  0
  8 10  2  0  0  0  0
  8  9  1  0  0  0  0
M  END
>  <MODEL>
       1

>  <COMPND>
    UNNAMED

>  <AUTHOR>
    GENERATED BY OPEN BABEL 2.4.90

>  <MASTER>
        0    0    0    0    0    0    0    0   10    0   10    0

