__1ai6_A_rec_1gm9_sox_lig_docked.pdb
 OpenBabel10201902343D

 24 26  0  0  1  0  0  0  0  0999 V2000
   12.7030    0.2680   -0.3340 O   0  0  0  0  0  0  0  0  0  0  0  0
   13.0490   -0.8560   -0.2200 C   0  0  0  0  0  0  0  0  0  0  0  0
   12.8370   -2.2320   -0.3700 N   0  0  0  0  0  0  0  0  0  0  0  0
   11.7070   -3.1520   -0.4460 C   0  0  2  0  0  0  0  0  0  0  0  0
   11.9580   -4.0810    0.7680 C   0  0  0  0  0  0  0  0  0  0  0  0
   12.8630   -5.2690    0.3360 C   0  0  0  0  0  0  0  0  0  0  0  0
   10.6890   -4.5900    1.4440 C   0  0  0  0  0  0  0  0  0  0  0  0
   12.9280   -3.0260    1.9370 S   0  0  1  0  0  0  0  0  0  0  0  0
   13.9390   -2.5200    0.5350 C   0  0  2  0  0  0  0  0  0  0  0  0
   14.3800   -1.0410    0.5770 C   0  0  2  0  0  0  0  0  0  0  0  0
   12.2260   -1.8750    2.3680 O   0  0  0  0  0  0  0  0  0  0  0  0
   11.7650   -4.0040   -1.7290 C   0  0  0  0  0  0  0  0  0  0  0  0
   12.7180   -4.2770   -2.3790 O   0  0  0  0  0  0  0  0  0  0  0  0
   10.4860   -4.3690   -1.9920 O   0  0  0  0  0  0  0  0  0  0  0  0
   14.1510   -0.2340    1.7960 N   0  0  0  0  0  0  0  0  0  0  0  0
   15.2700    0.3990    2.2000 C   0  0  0  0  0  0  0  0  0  0  0  0
   16.3290    0.2810    1.6040 O   0  0  0  0  0  0  0  0  0  0  0  0
   15.1220    1.2970    3.3910 C   0  0  0  0  0  0  0  0  0  0  0  0
   16.3810    1.9950    3.8270 C   0  0  0  0  0  0  0  0  0  0  0  0
   16.8010    3.2200    3.2490 C   0  0  0  0  0  0  0  0  0  0  0  0
   17.9450    3.8590    3.7960 C   0  0  0  0  0  0  0  0  0  0  0  0
   18.6770    3.2780    4.8220 C   0  0  0  0  0  0  0  0  0  0  0  0
   18.2400    2.0620    5.3910 C   0  0  0  0  0  0  0  0  0  0  0  0
   17.0970    1.4570    4.8860 C   0  0  0  0  0  0  0  0  0  0  0  0
  1  2  2  0  0  0  0
  2  3  1  0  0  0  0
  2 10  1  0  0  0  0
  3  4  1  0  0  0  0
  4 12  1  6  0  0  0
  4  5  1  0  0  0  0
  5  6  1  0  0  0  0
  5  7  1  0  0  0  0
  5  8  1  0  0  0  0
  8  9  1  0  0  0  0
  8 11  2  6  0  0  0
  9  3  1  6  0  0  0
  9 10  1  0  0  0  0
 10 15  1  1  0  0  0
 12 13  2  0  0  0  0
 12 14  1  0  0  0  0
 15 16  1  0  0  0  0
 16 17  2  0  0  0  0
 16 18  1  0  0  0  0
 18 19  1  0  0  0  0
 19 20  2  0  0  0  0
 19 24  1  0  0  0  0
 20 21  1  0  0  0  0
 21 22  2  0  0  0  0
 22 23  1  0  0  0  0
 23 24  2  0  0  0  0
M  END
>  <MODEL>
       1

>  <COMPND>
    UNNAMED

>  <AUTHOR>
    GENERATED BY OPEN BABEL 2.4.90

>  <MASTER>
        0    0    0    0    0    0    0    0   24    0   24    0

