__1ai7_A_rec_1ai7_iph_lig_docked.pdb
 OpenBabel10201902183D

  7  7  0  0  0  0  0  0  0  0999 V2000
   18.8250    3.2180    5.2090 C   0  0  0  0  0  0  0  0  0  0  0  0
   18.3770    4.1250    4.2520 C   0  0  0  0  0  0  0  0  0  0  0  0
   17.2620    3.7070    3.5520 C   0  0  0  0  0  0  0  0  0  0  0  0
   16.6690    2.4770    3.7630 C   0  0  0  0  0  0  0  0  0  0  0  0
   17.1740    1.6230    4.7220 C   0  0  0  0  0  0  0  0  0  0  0  0
   18.2840    1.9500    5.4570 C   0  0  0  0  0  0  0  0  0  0  0  0
   19.9040    3.5950    5.9810 O   0  0  0  0  0  0  0  0  0  0  0  0
  1  2  2  0  0  0  0
  1  6  1  0  0  0  0
  1  7  1  0  0  0  0
  2  3  1  0  0  0  0
  3  4  2  0  0  0  0
  4  5  1  0  0  0  0
  5  6  2  0  0  0  0
M  END
>  <MODEL>
       3

>  <COMPND>
    UNNAMED

>  <AUTHOR>
    GENERATED BY OPEN BABEL 2.4.90

>  <MASTER>
        0    0    0    0    0    0    0    0    7    0    7    0

