__1ajn_A_rec_1ai5_mnp_lig_docked.pdb
 OpenBabel10201902383D

 13 13  0  0  0  0  0  0  0  0999 V2000
   18.9140    0.6750    4.0150 C   0  0  0  0  0  0  0  0  0  0  0  0
   19.5600    1.8110    3.5920 C   0  0  0  0  0  0  0  0  0  0  0  0
   20.6390    2.1880    4.3480 C   0  0  0  0  0  0  0  0  0  0  0  0
   21.1360    1.5630    5.4790 C   0  0  0  0  0  0  0  0  0  0  0  0
   20.4610    0.4550    5.8930 C   0  0  0  0  0  0  0  0  0  0  0  0
   19.3680   -0.0040    5.1450 C   0  0  0  0  0  0  0  0  0  0  0  0
   21.3340    3.3650    4.0230 N   0  0  0  0  0  0  0  0  0  0  0  0
   21.4760    3.2430    2.6210 O   0  0  0  0  0  0  0  0  0  0  0  0
   21.7560    4.3980    4.8490 O   0  0  0  0  0  0  0  0  0  0  0  0
   17.7320    0.2770    3.1990 C   0  0  0  0  0  0  0  0  0  0  0  0
   18.0310   -0.5020    1.9210 C   0  0  0  0  0  0  0  0  0  0  0  0
   18.1380    0.1630    0.9080 O   0  0  0  0  0  0  0  0  0  0  0  0
   18.1030   -1.6880    1.7120 O   0  0  0  0  0  0  0  0  0  0  0  0
  1 10  1  0  0  0  0
  1  2  2  0  0  0  0
  1  6  1  0  0  0  0
  2  3  1  0  0  0  0
  3  7  1  0  0  0  0
  3  4  2  0  0  0  0
  4  5  1  0  0  0  0
  5  6  2  0  0  0  0
  7  9  2  0  0  0  0
  7  8  2  0  0  0  0
 10 11  1  0  0  0  0
 11 13  2  0  0  0  0
 11 12  1  0  0  0  0
M  END
>  <MODEL>
       1

>  <COMPND>
    UNNAMED

>  <AUTHOR>
    GENERATED BY OPEN BABEL 2.4.90

>  <MASTER>
        0    0    0    0    0    0    0    0   13    0   13    0

