__1ajp_A_rec_1ajp_omd_lig_docked.pdb
 OpenBabel10201902423D

 12 12  0  0  1  0  0  0  0  0999 V2000
   19.4950    1.2920    4.5160 C   0  0  1  0  0  0  0  0  0  0  0  0
   19.8230    2.3750    3.7090 C   0  0  0  0  0  0  0  0  0  0  0  0
   20.9710    3.0820    3.9790 C   0  0  0  0  0  0  0  0  0  0  0  0
   21.4250    4.1720    3.2740 O   0  0  0  0  0  0  0  0  0  0  0  0
   21.8360    2.7740    5.0250 C   0  0  0  0  0  0  0  0  0  0  0  0
   21.5110    1.7010    5.8130 C   0  0  0  0  0  0  0  0  0  0  0  0
   20.3510    0.9950    5.5690 C   0  0  0  0  0  0  0  0  0  0  0  0
   20.1770    0.1720    6.2660 O   0  0  0  0  0  0  0  0  0  0  0  0
   18.2470    0.4910    4.2360 C   0  0  0  0  0  0  0  0  0  0  0  0
   17.6770    0.6690    2.8200 C   0  0  0  0  0  0  0  0  0  0  0  0
   16.5340    1.0810    2.6660 O   0  0  0  0  0  0  0  0  0  0  0  0
   18.3230    0.3660    1.8150 O   0  0  0  0  0  0  0  0  0  0  0  0
  1  2  1  0  0  0  0
  1  9  1  1  0  0  0
  1  7  1  0  0  0  0
  2  3  2  0  0  0  0
  3  4  1  0  0  0  0
  3  5  1  0  0  0  0
  5  6  2  0  0  0  0
  6  7  1  0  0  0  0
  7  8  2  0  0  0  0
  9 10  1  0  0  0  0
 10 12  2  0  0  0  0
 10 11  1  0  0  0  0
M  END
>  <MODEL>
       1

>  <COMPND>
    UNNAMED

>  <AUTHOR>
    GENERATED BY OPEN BABEL 2.4.90

>  <MASTER>
        0    0    0    0    0    0    0    0   12    0   12    0

