__1ajq_A_rec_1fxh_pac_lig_docked.pdb
 OpenBabel10201902303D

 10 10  0  0  0  0  0  0  0  0999 V2000
   16.7850    2.0040    3.9920 C   0  0  0  0  0  0  0  0  0  0  0  0
   17.6060    1.3030    4.9140 C   0  0  0  0  0  0  0  0  0  0  0  0
   18.8480    1.8150    5.3290 C   0  0  0  0  0  0  0  0  0  0  0  0
   19.2000    3.0490    4.7640 C   0  0  0  0  0  0  0  0  0  0  0  0
   18.4110    3.7760    3.8450 C   0  0  0  0  0  0  0  0  0  0  0  0
   17.1720    3.2460    3.4400 C   0  0  0  0  0  0  0  0  0  0  0  0
   15.4350    1.5030    3.4940 C   0  0  0  0  0  0  0  0  0  0  0  0
   15.6120    0.5040    2.3700 C   0  0  0  0  0  0  0  0  0  0  0  0
   14.6650   -0.3720    2.4220 O   0  0  0  0  0  0  0  0  0  0  0  0
   16.5270    0.5390    1.5410 O   0  0  0  0  0  0  0  0  0  0  0  0
  1  7  1  0  0  0  0
  1  2  2  0  0  0  0
  1  6  1  0  0  0  0
  2  3  1  0  0  0  0
  3  4  2  0  0  0  0
  4  5  1  0  0  0  0
  5  6  2  0  0  0  0
  7  8  1  0  0  0  0
  8 10  2  0  0  0  0
  8  9  1  0  0  0  0
M  END
>  <MODEL>
       2

>  <COMPND>
    UNNAMED

>  <AUTHOR>
    GENERATED BY OPEN BABEL 2.4.90

>  <MASTER>
        0    0    0    0    0    0    0    0   10    0   10    0

