__1fxh_A_rec_1k5s_gro_lig_docked.pdb
 OpenBabel10201902173D

 11 11  0  0  1  0  0  0  0  0999 V2000
   17.8450    1.0010    3.3550 C   0  0  2  0  0  0  0  0  0  0  0  0
   16.9910    2.1160    2.7580 C   0  0  0  0  0  0  0  0  0  0  0  0
   19.0270    1.5460    4.0740 C   0  0  0  0  0  0  0  0  0  0  0  0
   19.4670    0.8950    5.2230 C   0  0  0  0  0  0  0  0  0  0  0  0
   20.5490    1.3780    5.9360 C   0  0  0  0  0  0  0  0  0  0  0  0
   21.1950    2.5270    5.5100 C   0  0  0  0  0  0  0  0  0  0  0  0
   20.7590    3.1950    4.3650 C   0  0  0  0  0  0  0  0  0  0  0  0
   19.6670    2.7070    3.6450 C   0  0  0  0  0  0  0  0  0  0  0  0
   19.1130    0.2280    1.4860 O   0  0  0  0  0  0  0  0  0  0  0  0
   18.2170    0.0090    2.2950 C   0  0  0  0  0  0  0  0  0  0  0  0
   17.5880   -1.0350    2.2590 O   0  0  0  0  0  0  0  0  0  0  0  0
  1 10  1  0  0  0  0
  1  2  1  6  0  0  0
  1  3  1  0  0  0  0
  3  8  2  0  0  0  0
  3  4  1  0  0  0  0
  4  5  2  0  0  0  0
  5  6  1  0  0  0  0
  6  7  2  0  0  0  0
  7  8  1  0  0  0  0
  9 10  2  0  0  0  0
 10 11  1  0  0  0  0
M  END
>  <MODEL>
       1

>  <COMPND>
    UNNAMED

>  <AUTHOR>
    GENERATED BY OPEN BABEL 2.4.90

>  <MASTER>
        0    0    0    0    0    0    0    0   11    0   11    0

