__1fxv_A_rec_1fxh_pac_lig_docked.pdb
 OpenBabel10201902243D

 10 10  0  0  0  0  0  0  0  0999 V2000
   19.2650    1.4090    4.1690 C   0  0  0  0  0  0  0  0  0  0  0  0
   20.2110    2.3970    3.7880 C   0  0  0  0  0  0  0  0  0  0  0  0
   21.3590    2.6510    4.5590 C   0  0  0  0  0  0  0  0  0  0  0  0
   21.4850    1.8650    5.7140 C   0  0  0  0  0  0  0  0  0  0  0  0
   20.5660    0.8740    6.1250 C   0  0  0  0  0  0  0  0  0  0  0  0
   19.4230    0.6350    5.3410 C   0  0  0  0  0  0  0  0  0  0  0  0
   17.9980    1.0890    3.3860 C   0  0  0  0  0  0  0  0  0  0  0  0
   18.2670    0.0360    2.3320 C   0  0  0  0  0  0  0  0  0  0  0  0
   18.6650    0.6080    1.2450 O   0  0  0  0  0  0  0  0  0  0  0  0
   18.1220   -1.1790    2.5050 O   0  0  0  0  0  0  0  0  0  0  0  0
  1  7  1  0  0  0  0
  1  2  2  0  0  0  0
  1  6  1  0  0  0  0
  2  3  1  0  0  0  0
  3  4  2  0  0  0  0
  4  5  1  0  0  0  0
  5  6  2  0  0  0  0
  7  8  1  0  0  0  0
  8 10  2  0  0  0  0
  8  9  1  0  0  0  0
M  END
>  <MODEL>
       8

>  <COMPND>
    UNNAMED

>  <AUTHOR>
    GENERATED BY OPEN BABEL 2.4.90

>  <MASTER>
        0    0    0    0    0    0    0    0   10    0   10    0

