__1gm8_A_rec_1ai4_dhy_lig_docked.pdb
 OpenBabel10201902453D

 12 12  0  0  0  0  0  0  0  0999 V2000
   19.2140    0.7590    4.0050 C   0  0  0  0  0  0  0  0  0  0  0  0
   20.0170    1.7920    3.5430 C   0  0  0  0  0  0  0  0  0  0  0  0
   21.0480    2.2760    4.3060 C   0  0  0  0  0  0  0  0  0  0  0  0
   21.2770    1.7350    5.5680 C   0  0  0  0  0  0  0  0  0  0  0  0
   20.4930    0.7080    6.0550 C   0  0  0  0  0  0  0  0  0  0  0  0
   19.4390    0.2250    5.2790 C   0  0  0  0  0  0  0  0  0  0  0  0
   21.9710    3.2740    4.0380 O   0  0  0  0  0  0  0  0  0  0  0  0
   22.3210    2.3870    6.1920 O   0  0  0  0  0  0  0  0  0  0  0  0
   18.1270    0.3260    3.0670 C   0  0  0  0  0  0  0  0  0  0  0  0
   18.4820   -0.6780    1.9650 C   0  0  0  0  0  0  0  0  0  0  0  0
   18.7930   -0.2400    0.8630 O   0  0  0  0  0  0  0  0  0  0  0  0
   18.3330   -1.9010    1.9740 O   0  0  0  0  0  0  0  0  0  0  0  0
  1  9  1  0  0  0  0
  1  2  2  0  0  0  0
  1  6  1  0  0  0  0
  2  3  1  0  0  0  0
  3  7  1  0  0  0  0
  3  4  2  0  0  0  0
  4  8  1  0  0  0  0
  4  5  1  0  0  0  0
  5  6  2  0  0  0  0
  9 10  1  0  0  0  0
 10 12  2  0  0  0  0
 10 11  1  0  0  0  0
M  END
>  <MODEL>
       1

>  <COMPND>
    UNNAMED

>  <AUTHOR>
    GENERATED BY OPEN BABEL 2.4.90

>  <MASTER>
        0    0    0    0    0    0    0    0   12    0   12    0

