__1gm8_A_rec_1ajn_aan_lig_docked.pdb
 OpenBabel10201902463D

 13 13  0  0  0  0  0  0  0  0999 V2000
   18.7280    0.3930    4.0450 C   0  0  0  0  0  0  0  0  0  0  0  0
   19.2330    0.1930    5.3130 C   0  0  0  0  0  0  0  0  0  0  0  0
   20.2660    1.0360    5.6910 C   0  0  0  0  0  0  0  0  0  0  0  0
   20.8290    1.9090    4.8010 C   0  0  0  0  0  0  0  0  0  0  0  0
   20.4080    2.0780    3.4860 C   0  0  0  0  0  0  0  0  0  0  0  0
   19.3090    1.2870    3.1590 C   0  0  0  0  0  0  0  0  0  0  0  0
   21.7100    2.4770    5.0960 N   0  0  0  0  0  0  0  0  0  0  0  0
   21.9160    3.5340    4.1720 O   0  0  0  0  0  0  0  0  0  0  0  0
   22.4720    2.0950    6.2280 O   0  0  0  0  0  0  0  0  0  0  0  0
   17.5100   -0.3870    3.6060 C   0  0  0  0  0  0  0  0  0  0  0  0
   17.7440   -1.1310    2.2770 C   0  0  0  0  0  0  0  0  0  0  0  0
   17.1990   -0.7490    1.2420 O   0  0  0  0  0  0  0  0  0  0  0  0
   18.4390   -2.1410    2.1130 O   0  0  0  0  0  0  0  0  0  0  0  0
  1  2  2  0  0  0  0
  1 10  1  0  0  0  0
  1  6  1  0  0  0  0
  2  3  1  0  0  0  0
  3  4  2  0  0  0  0
  4  7  1  0  0  0  0
  4  5  1  0  0  0  0
  5  6  2  0  0  0  0
  7  8  2  0  0  0  0
  7  9  2  0  0  0  0
 10 11  1  0  0  0  0
 11 13  2  0  0  0  0
 11 12  1  0  0  0  0
M  END
>  <MODEL>
       2

>  <COMPND>
    UNNAMED

>  <AUTHOR>
    GENERATED BY OPEN BABEL 2.4.90

>  <MASTER>
        0    0    0    0    0    0    0    0   13    0   13    0

