__1gm9_A_rec_1gm9_sox_lig_docked.pdb
 OpenBabel10201902473D

 24 26  0  0  1  0  0  0  0  0999 V2000
   12.7260    0.1280   -0.1110 O   0  0  0  0  0  0  0  0  0  0  0  0
   13.0980   -0.9900   -0.0050 C   0  0  0  0  0  0  0  0  0  0  0  0
   12.9030   -2.3700   -0.1280 N   0  0  0  0  0  0  0  0  0  0  0  0
   11.7880   -3.3110   -0.1290 C   0  0  2  0  0  0  0  0  0  0  0  0
   12.1240   -4.2210    1.0790 C   0  0  0  0  0  0  0  0  0  0  0  0
   13.0240   -5.3970    0.6090 C   0  0  0  0  0  0  0  0  0  0  0  0
   10.9060   -4.7450    1.8320 C   0  0  0  0  0  0  0  0  0  0  0  0
   13.1400   -3.1350    2.1790 S   0  0  1  0  0  0  0  0  0  0  0  0
   14.0600   -2.6280    0.7160 C   0  0  2  0  0  0  0  0  0  0  0  0
   14.4760   -1.1410    0.7170 C   0  0  2  0  0  0  0  0  0  0  0  0
   12.4430   -1.9920    2.6360 O   0  0  0  0  0  0  0  0  0  0  0  0
   11.7880   -4.1770   -1.4040 C   0  0  0  0  0  0  0  0  0  0  0  0
   11.2190   -5.2000   -1.5890 O   0  0  0  0  0  0  0  0  0  0  0  0
   12.6010   -3.5430   -2.2850 O   0  0  0  0  0  0  0  0  0  0  0  0
   14.3020   -0.3240    1.9380 N   0  0  0  0  0  0  0  0  0  0  0  0
   15.4330    0.3240    2.2780 C   0  0  0  0  0  0  0  0  0  0  0  0
   16.4610    0.2110    1.6290 O   0  0  0  0  0  0  0  0  0  0  0  0
   15.3370    1.2330    3.4660 C   0  0  0  0  0  0  0  0  0  0  0  0
   16.6240    1.9050    3.8630 C   0  0  0  0  0  0  0  0  0  0  0  0
   17.0250    3.1480    3.3120 C   0  0  0  0  0  0  0  0  0  0  0  0
   18.2010    3.7570    3.8240 C   0  0  0  0  0  0  0  0  0  0  0  0
   18.9780    3.1310    4.7870 C   0  0  0  0  0  0  0  0  0  0  0  0
   18.5600    1.8980    5.3310 C   0  0  0  0  0  0  0  0  0  0  0  0
   17.3880    1.3210    4.8630 C   0  0  0  0  0  0  0  0  0  0  0  0
  1  2  2  0  0  0  0
  2  3  1  0  0  0  0
  2 10  1  0  0  0  0
  3  4  1  0  0  0  0
  4 12  1  6  0  0  0
  4  5  1  0  0  0  0
  5  6  1  0  0  0  0
  5  7  1  0  0  0  0
  5  8  1  0  0  0  0
  8  9  1  0  0  0  0
  8 11  2  6  0  0  0
  9  3  1  6  0  0  0
  9 10  1  0  0  0  0
 10 15  1  1  0  0  0
 12 13  2  0  0  0  0
 12 14  1  0  0  0  0
 15 16  1  0  0  0  0
 16 17  2  0  0  0  0
 16 18  1  0  0  0  0
 18 19  1  0  0  0  0
 19 20  2  0  0  0  0
 19 24  1  0  0  0  0
 20 21  1  0  0  0  0
 21 22  2  0  0  0  0
 22 23  1  0  0  0  0
 23 24  2  0  0  0  0
M  END
>  <MODEL>
       1

>  <COMPND>
    UNNAMED

>  <AUTHOR>
    GENERATED BY OPEN BABEL 2.4.90

>  <MASTER>
        0    0    0    0    0    0    0    0   24    0   24    0

