__1gm9_A_rec_1ai7_iph_lig_docked.pdb
 OpenBabel10201902473D

  7  7  0  0  0  0  0  0  0  0999 V2000
   18.9590    2.9140    5.1740 C   0  0  0  0  0  0  0  0  0  0  0  0
   18.2460    1.7510    5.4530 C   0  0  0  0  0  0  0  0  0  0  0  0
   17.1650    1.5340    4.6200 C   0  0  0  0  0  0  0  0  0  0  0  0
   16.8060    2.4190    3.6210 C   0  0  0  0  0  0  0  0  0  0  0  0
   17.5530    3.5590    3.4080 C   0  0  0  0  0  0  0  0  0  0  0  0
   18.6360    3.8610    4.1940 C   0  0  0  0  0  0  0  0  0  0  0  0
   20.0810    3.1650    5.9340 O   0  0  0  0  0  0  0  0  0  0  0  0
  1  2  2  0  0  0  0
  1  6  1  0  0  0  0
  1  7  1  0  0  0  0
  2  3  1  0  0  0  0
  3  4  2  0  0  0  0
  4  5  1  0  0  0  0
  5  6  2  0  0  0  0
M  END
>  <MODEL>
       1

>  <COMPND>
    UNNAMED

>  <AUTHOR>
    GENERATED BY OPEN BABEL 2.4.90

>  <MASTER>
        0    0    0    0    0    0    0    0    7    0    7    0

