__1k5s_A_rec_1ai4_dhy_lig_min.pdb
 OpenBabel10201901423D

 12 12  0  0  0  0  0  0  0  0999 V2000
   18.5180    1.9200    4.5990 C   0  0  0  0  0  0  0  0  0  0  0  0
   17.7830    3.0940    4.6760 C   0  0  0  0  0  0  0  0  0  0  0  0
   18.3140    4.2190    5.2530 C   0  0  0  0  0  0  0  0  0  0  0  0
   19.6000    4.1730    5.7840 C   0  0  0  0  0  0  0  0  0  0  0  0
   20.3540    3.0180    5.7240 C   0  0  0  0  0  0  0  0  0  0  0  0
   19.8060    1.8730    5.1460 C   0  0  0  0  0  0  0  0  0  0  0  0
   17.7730    5.4840    5.4170 O   0  0  0  0  0  0  0  0  0  0  0  0
   19.9300    5.3840    6.3580 O   0  0  0  0  0  0  0  0  0  0  0  0
   17.8170    0.7680    3.9420 C   0  0  0  0  0  0  0  0  0  0  0  0
   16.6420    1.0780    3.0080 C   0  0  0  0  0  0  0  0  0  0  0  0
   16.7760    0.8380    1.8140 O   0  0  0  0  0  0  0  0  0  0  0  0
   15.6150    1.7100    3.2630 O   0  0  0  0  0  0  0  0  0  0  0  0
  1  9  1  0  0  0  0
  1  2  2  0  0  0  0
  1  6  1  0  0  0  0
  2  3  1  0  0  0  0
  3  7  1  0  0  0  0
  3  4  2  0  0  0  0
  4  8  1  0  0  0  0
  4  5  1  0  0  0  0
  5  6  2  0  0  0  0
  9 10  1  0  0  0  0
 10 12  2  0  0  0  0
 10 11  1  0  0  0  0
M  END
>  <COMPND>
    UNNAMED

>  <AUTHOR>
    GENERATED BY OPEN BABEL 2.4.90

>  <MASTER>
        0    0    0    0    0    0    0    0   12    0   12    0

