__1k5s_A_rec_1k5s_gro_lig_docked.pdb
 OpenBabel10201902123D

 11 11  0  0  1  0  0  0  0  0999 V2000
   16.9860    2.0220    4.0660 C   0  0  2  0  0  0  0  0  0  0  0  0
   16.3070    3.3390    3.7030 C   0  0  0  0  0  0  0  0  0  0  0  0
   18.4010    2.2310    4.4710 C   0  0  0  0  0  0  0  0  0  0  0  0
   18.9670    1.3570    5.3950 C   0  0  0  0  0  0  0  0  0  0  0  0
   20.2730    1.5260    5.8150 C   0  0  0  0  0  0  0  0  0  0  0  0
   21.0230    2.5810    5.3220 C   0  0  0  0  0  0  0  0  0  0  0  0
   20.4660    3.4700    4.4020 C   0  0  0  0  0  0  0  0  0  0  0  0
   19.1470    3.2990    3.9770 C   0  0  0  0  0  0  0  0  0  0  0  0
   17.8150    0.5330    2.3940 O   0  0  0  0  0  0  0  0  0  0  0  0
   16.8410    1.0380    2.9440 C   0  0  0  0  0  0  0  0  0  0  0  0
   15.7100    0.7560    2.5880 O   0  0  0  0  0  0  0  0  0  0  0  0
  1 10  1  0  0  0  0
  1  2  1  6  0  0  0
  1  3  1  0  0  0  0
  3  8  2  0  0  0  0
  3  4  1  0  0  0  0
  4  5  2  0  0  0  0
  5  6  1  0  0  0  0
  6  7  2  0  0  0  0
  7  8  1  0  0  0  0
  9 10  2  0  0  0  0
 10 11  1  0  0  0  0
M  END
>  <MODEL>
       2

>  <COMPND>
    UNNAMED

>  <AUTHOR>
    GENERATED BY OPEN BABEL 2.4.90

>  <MASTER>
        0    0    0    0    0    0    0    0   11    0   11    0

