__1k7d_A_rec_1fxh_pac_lig_docked.pdb
 OpenBabel10201902393D

 10 10  0  0  0  0  0  0  0  0999 V2000
   17.5410    2.1250    4.1200 C   0  0  0  0  0  0  0  0  0  0  0  0
   18.1130    3.2860    3.5350 C   0  0  0  0  0  0  0  0  0  0  0  0
   19.4070    3.7180    3.8740 C   0  0  0  0  0  0  0  0  0  0  0  0
   20.0700    2.9240    4.8210 C   0  0  0  0  0  0  0  0  0  0  0  0
   19.5350    1.7640    5.4240 C   0  0  0  0  0  0  0  0  0  0  0  0
   18.2380    1.3480    5.0730 C   0  0  0  0  0  0  0  0  0  0  0  0
   16.1440    1.6070    3.8050 C   0  0  0  0  0  0  0  0  0  0  0  0
   16.1730    0.6600    2.6240 C   0  0  0  0  0  0  0  0  0  0  0  0
   14.9990    0.1510    2.4520 O   0  0  0  0  0  0  0  0  0  0  0  0
   17.1750    0.4240    1.9420 O   0  0  0  0  0  0  0  0  0  0  0  0
  1  7  1  0  0  0  0
  1  2  2  0  0  0  0
  1  6  1  0  0  0  0
  2  3  1  0  0  0  0
  3  4  2  0  0  0  0
  4  5  1  0  0  0  0
  5  6  2  0  0  0  0
  7  8  1  0  0  0  0
  8 10  2  0  0  0  0
  8  9  1  0  0  0  0
M  END
>  <MODEL>
       1

>  <COMPND>
    UNNAMED

>  <AUTHOR>
    GENERATED BY OPEN BABEL 2.4.90

>  <MASTER>
        0    0    0    0    0    0    0    0   10    0   10    0

