__1k7d_A_rec_1ai6_4hp_lig_docked.pdb
 OpenBabel10201902393D

 11 11  0  0  0  0  0  0  0  0999 V2000
   17.1040    2.0030    3.9950 C   0  0  0  0  0  0  0  0  0  0  0  0
   17.7210    1.1790    4.9420 C   0  0  0  0  0  0  0  0  0  0  0  0
   18.9780    1.5070    5.3730 C   0  0  0  0  0  0  0  0  0  0  0  0
   19.5720    2.6780    4.8940 C   0  0  0  0  0  0  0  0  0  0  0  0
   18.9810    3.4800    3.9290 C   0  0  0  0  0  0  0  0  0  0  0  0
   17.7100    3.1290    3.4970 C   0  0  0  0  0  0  0  0  0  0  0  0
   20.8100    3.0130    5.4040 O   0  0  0  0  0  0  0  0  0  0  0  0
   15.7350    1.7210    3.4480 C   0  0  0  0  0  0  0  0  0  0  0  0
   15.7320    0.5110    2.4910 C   0  0  0  0  0  0  0  0  0  0  0  0
   14.7060   -0.1580    2.4280 O   0  0  0  0  0  0  0  0  0  0  0  0
   16.7620    0.2430    1.8290 O   0  0  0  0  0  0  0  0  0  0  0  0
  1  6  2  0  0  0  0
  1  8  1  0  0  0  0
  1  2  1  0  0  0  0
  2  3  2  0  0  0  0
  3  4  1  0  0  0  0
  4  5  2  0  0  0  0
  4  7  1  0  0  0  0
  5  6  1  0  0  0  0
  8  9  1  0  0  0  0
  9 11  2  0  0  0  0
  9 10  1  0  0  0  0
M  END
>  <MODEL>
       1

>  <COMPND>
    UNNAMED

>  <AUTHOR>
    GENERATED BY OPEN BABEL 2.4.90

>  <MASTER>
        0    0    0    0    0    0    0    0   11    0   11    0

