__1k7d_A_rec_1fxh_pac_lig_docked.pdb
 OpenBabel10201902393D

 10 10  0  0  0  0  0  0  0  0999 V2000
   17.1580    1.8610    3.8500 C   0  0  0  0  0  0  0  0  0  0  0  0
   17.6800    3.1110    3.4260 C   0  0  0  0  0  0  0  0  0  0  0  0
   18.8650    3.6360    3.9710 C   0  0  0  0  0  0  0  0  0  0  0  0
   19.4730    2.8370    4.9500 C   0  0  0  0  0  0  0  0  0  0  0  0
   18.9850    1.5890    5.3970 C   0  0  0  0  0  0  0  0  0  0  0  0
   17.7960    1.0820    4.8410 C   0  0  0  0  0  0  0  0  0  0  0  0
   15.8770    1.2400    3.3090 C   0  0  0  0  0  0  0  0  0  0  0  0
   16.1770   -0.0240    2.5300 C   0  0  0  0  0  0  0  0  0  0  0  0
   16.9780    0.2520    1.5560 O   0  0  0  0  0  0  0  0  0  0  0  0
   15.7170   -1.1380    2.8010 O   0  0  0  0  0  0  0  0  0  0  0  0
  1  7  1  0  0  0  0
  1  2  2  0  0  0  0
  1  6  1  0  0  0  0
  2  3  1  0  0  0  0
  3  4  2  0  0  0  0
  4  5  1  0  0  0  0
  5  6  2  0  0  0  0
  7  8  1  0  0  0  0
  8 10  2  0  0  0  0
  8  9  1  0  0  0  0
M  END
>  <MODEL>
       3

>  <COMPND>
    UNNAMED

>  <AUTHOR>
    GENERATED BY OPEN BABEL 2.4.90

>  <MASTER>
        0    0    0    0    0    0    0    0   10    0   10    0

