__1k7d_A_rec_1gm9_sox_lig_docked.pdb
 OpenBabel10201902393D

 24 26  0  0  1  0  0  0  0  0999 V2000
   13.7330    0.2190   -0.7870 O   0  0  0  0  0  0  0  0  0  0  0  0
   14.0120   -0.9230   -0.6660 C   0  0  0  0  0  0  0  0  0  0  0  0
   13.7520   -2.2840   -0.8710 N   0  0  0  0  0  0  0  0  0  0  0  0
   12.5940   -3.1450   -1.0850 C   0  0  2  0  0  0  0  0  0  0  0  0
   12.6740   -4.1090    0.1250 C   0  0  0  0  0  0  0  0  0  0  0  0
   13.5610   -5.3310   -0.2420 C   0  0  0  0  0  0  0  0  0  0  0  0
   11.3200   -4.5690    0.6550 C   0  0  0  0  0  0  0  0  0  0  0  0
   13.5670   -3.1270    1.4130 S   0  0  1  0  0  0  0  0  0  0  0  0
   14.7400   -2.6430    0.1330 C   0  0  2  0  0  0  0  0  0  0  0  0
   15.2430   -1.1890    0.2570 C   0  0  2  0  0  0  0  0  0  0  0  0
   12.8800   -1.9520    1.7980 O   0  0  0  0  0  0  0  0  0  0  0  0
   12.7430   -3.9730   -2.3760 C   0  0  0  0  0  0  0  0  0  0  0  0
   12.1520   -4.9530   -2.6840 O   0  0  0  0  0  0  0  0  0  0  0  0
   13.7180   -3.3670   -3.0980 O   0  0  0  0  0  0  0  0  0  0  0  0
   14.9280   -0.3960    1.4670 N   0  0  0  0  0  0  0  0  0  0  0  0
   16.0210    0.2060    1.9740 C   0  0  0  0  0  0  0  0  0  0  0  0
   17.1240    0.0760    1.4670 O   0  0  0  0  0  0  0  0  0  0  0  0
   15.7900    1.0890    3.1630 C   0  0  0  0  0  0  0  0  0  0  0  0
   17.0300    1.7040    3.7530 C   0  0  0  0  0  0  0  0  0  0  0  0
   17.4850    2.9920    3.3740 C   0  0  0  0  0  0  0  0  0  0  0  0
   18.6030    3.5350    4.0600 C   0  0  0  0  0  0  0  0  0  0  0  0
   19.2790    2.8080    5.0290 C   0  0  0  0  0  0  0  0  0  0  0  0
   18.8090    1.5310    5.4000 C   0  0  0  0  0  0  0  0  0  0  0  0
   17.6890    1.0150    4.7610 C   0  0  0  0  0  0  0  0  0  0  0  0
  1  2  2  0  0  0  0
  2  3  1  0  0  0  0
  2 10  1  0  0  0  0
  3  4  1  0  0  0  0
  4 12  1  6  0  0  0
  4  5  1  0  0  0  0
  5  6  1  0  0  0  0
  5  7  1  0  0  0  0
  5  8  1  0  0  0  0
  8  9  1  0  0  0  0
  8 11  2  6  0  0  0
  9  3  1  6  0  0  0
  9 10  1  0  0  0  0
 10 15  1  1  0  0  0
 12 13  2  0  0  0  0
 12 14  1  0  0  0  0
 15 16  1  0  0  0  0
 16 17  2  0  0  0  0
 16 18  1  0  0  0  0
 18 19  1  0  0  0  0
 19 20  2  0  0  0  0
 19 24  1  0  0  0  0
 20 21  1  0  0  0  0
 21 22  2  0  0  0  0
 22 23  1  0  0  0  0
 23 24  2  0  0  0  0
M  END
>  <MODEL>
       1

>  <COMPND>
    UNNAMED

>  <AUTHOR>
    GENERATED BY OPEN BABEL 2.4.90

>  <MASTER>
        0    0    0    0    0    0    0    0   24    0   24    0

