__1kec_A_rec_1fxh_pac_lig_docked.pdb
 OpenBabel10201902103D

 10 10  0  0  0  0  0  0  0  0999 V2000
   17.2820    2.0010    4.1240 C   0  0  0  0  0  0  0  0  0  0  0  0
   18.1240    1.2770    5.0080 C   0  0  0  0  0  0  0  0  0  0  0  0
   19.3700    1.7840    5.4180 C   0  0  0  0  0  0  0  0  0  0  0  0
   19.7030    3.0390    4.8880 C   0  0  0  0  0  0  0  0  0  0  0  0
   18.8930    3.7890    4.0060 C   0  0  0  0  0  0  0  0  0  0  0  0
   17.6520    3.2630    3.6060 C   0  0  0  0  0  0  0  0  0  0  0  0
   15.9280    1.5060    3.6330 C   0  0  0  0  0  0  0  0  0  0  0  0
   16.0940    0.4960    2.5170 C   0  0  0  0  0  0  0  0  0  0  0  0
   15.1530   -0.3840    2.5910 O   0  0  0  0  0  0  0  0  0  0  0  0
   16.9970    0.5280    1.6750 O   0  0  0  0  0  0  0  0  0  0  0  0
  1  7  1  0  0  0  0
  1  2  2  0  0  0  0
  1  6  1  0  0  0  0
  2  3  1  0  0  0  0
  3  4  2  0  0  0  0
  4  5  1  0  0  0  0
  5  6  2  0  0  0  0
  7  8  1  0  0  0  0
  8 10  2  0  0  0  0
  8  9  1  0  0  0  0
M  END
>  <MODEL>
       1

>  <COMPND>
    UNNAMED

>  <AUTHOR>
    GENERATED BY OPEN BABEL 2.4.90

>  <MASTER>
        0    0    0    0    0    0    0    0   10    0   10    0

