__1pnl_A_rec_1fxh_pac_lig_docked.pdb
 OpenBabel10201902273D

 10 10  0  0  0  0  0  0  0  0999 V2000
   16.8160    1.8820    3.9200 C   0  0  0  0  0  0  0  0  0  0  0  0
   17.6490    1.1640    4.8180 C   0  0  0  0  0  0  0  0  0  0  0  0
   18.9380    1.6200    5.1480 C   0  0  0  0  0  0  0  0  0  0  0  0
   19.3220    2.8170    4.5270 C   0  0  0  0  0  0  0  0  0  0  0  0
   18.5210    3.5590    3.6300 C   0  0  0  0  0  0  0  0  0  0  0  0
   17.2360    3.0860    3.3100 C   0  0  0  0  0  0  0  0  0  0  0  0
   15.4160    1.4410    3.5120 C   0  0  0  0  0  0  0  0  0  0  0  0
   15.4760    0.4360    2.3810 C   0  0  0  0  0  0  0  0  0  0  0  0
   14.3650   -0.2200    2.3310 O   0  0  0  0  0  0  0  0  0  0  0  0
   16.4460    0.2830    1.6320 O   0  0  0  0  0  0  0  0  0  0  0  0
  1  7  1  0  0  0  0
  1  2  2  0  0  0  0
  1  6  1  0  0  0  0
  2  3  1  0  0  0  0
  3  4  2  0  0  0  0
  4  5  1  0  0  0  0
  5  6  2  0  0  0  0
  7  8  1  0  0  0  0
  8 10  2  0  0  0  0
  8  9  1  0  0  0  0
M  END
>  <MODEL>
       2

>  <COMPND>
    UNNAMED

>  <AUTHOR>
    GENERATED BY OPEN BABEL 2.4.90

>  <MASTER>
        0    0    0    0    0    0    0    0   10    0   10    0

