__2oxn_A_rec_3gsm_vpu_lig_min.pdb
 OpenBabel10191920553D

 18 18  0  0  1  0  0  0  0  0999 V2000
    4.0930   -9.3150   10.7300 C   0  0  2  0  0  0  0  0  0  0  0  0
    3.2030   -8.0760   10.5330 C   0  0  1  0  0  0  0  0  0  0  0  0
    3.9320   -6.8320   10.5500 O   0  0  0  0  0  0  0  0  0  0  0  0
    2.4910   -8.2570    9.1870 C   0  0  2  0  0  0  0  0  0  0  0  0
    1.8530   -7.0330    8.7770 O   0  0  0  0  0  0  0  0  0  0  0  0
    1.4610   -9.3970    9.2390 C   0  0  2  0  0  0  0  0  0  0  0  0
    1.9500  -10.5920    9.8800 O   0  0  0  0  0  0  0  0  0  0  0  0
    3.2190  -10.5540   10.6190 C   0  0  0  0  0  0  0  0  0  0  0  0
    3.6280  -11.6200   11.1670 N   0  0  0  0  0  0  0  0  0  0  0  0
    6.0990   -8.7620   12.0710 C   0  0  0  0  0  0  0  0  0  0  0  0
    6.7340   -8.3810   11.0950 O   0  0  0  0  0  0  0  0  0  0  0  0
    4.8320   -9.2170   12.0010 N   0  0  0  0  0  0  0  0  0  0  0  0
    6.7530   -8.7250   13.4410 C   0  0  0  0  0  0  0  0  0  0  0  0
    7.9070   -9.7340   13.5000 C   0  0  0  0  0  0  0  0  0  0  0  0
    8.0840  -11.9760   12.3070 C   0  0  0  0  0  0  0  0  0  0  0  0
    7.4120  -11.1710   13.4330 C   0  0  0  0  0  0  0  0  0  0  0  0
    1.0030   -9.7480    7.8340 C   0  0  0  0  0  0  0  0  0  0  0  0
    1.0020  -10.9110    7.4530 O   0  0  0  0  0  0  0  0  0  0  0  0
  1  8  1  0  0  0  0
  1  2  1  0  0  0  0
  1 12  1  1  0  0  0
  2  4  1  0  0  0  0
  2  3  1  6  0  0  0
  4  6  1  0  0  0  0
  4  5  1  1  0  0  0
  6 17  1  6  0  0  0
  6  7  1  0  0  0  0
  7  8  1  0  0  0  0
  8  9  2  0  0  0  0
 10 11  2  0  0  0  0
 10 12  1  0  0  0  0
 10 13  1  0  0  0  0
 13 14  1  0  0  0  0
 14 16  1  0  0  0  0
 15 16  1  0  0  0  0
 17 18  2  0  0  0  0
M  END
>  <COMPND>
    UNNAMED

>  <AUTHOR>
    GENERATED BY OPEN BABEL 2.4.90

>  <MASTER>
        0    0    0    0    0    0    0    0   18    0   18    0

