__4ntj_A_rec_4ntj_azj_lig_min.pdb
 OpenBabel10201901113D

 33 35  0  0  0  0  0  0  0  0999 V2000
  -15.8220  -13.0240   13.3340 C   0  0  0  0  0  0  0  0  0  0  0  0
  -14.1970  -13.1490   11.3160 C   0  0  0  0  0  0  0  0  0  0  0  0
  -16.8540  -12.4360   12.3690 C   0  0  0  0  0  0  0  0  0  0  0  0
  -15.3150  -12.5430   10.4410 C   0  0  0  0  0  0  0  0  0  0  0  0
  -14.4020  -12.7320   12.8120 C   0  0  0  0  0  0  0  0  0  0  0  0
  -16.6480  -12.9490   10.9750 N   0  0  0  0  0  0  0  0  0  0  0  0
  -20.8830  -10.8870   10.2870 C   0  0  0  0  0  0  0  0  0  0  0  0
  -19.1730  -13.4500    8.1750 C   0  0  0  0  0  0  0  0  0  0  0  0
  -18.8350  -11.9700   10.4560 N   0  0  0  0  0  0  0  0  0  0  0  0
  -19.9820  -11.8190    9.7540 C   0  0  0  0  0  0  0  0  0  0  0  0
  -18.0060  -13.5820    8.9260 C   0  0  0  0  0  0  0  0  0  0  0  0
  -20.1980  -12.5700    8.5580 C   0  0  0  0  0  0  0  0  0  0  0  0
  -17.8320  -12.7940   10.0780 C   0  0  0  0  0  0  0  0  0  0  0  0
  -16.1920  -15.2710    8.1450 N   0  0  0  0  0  0  0  0  0  0  0  0
  -17.0030  -14.5230    8.4850 C   0  0  0  0  0  0  0  0  0  0  0  0
  -22.3240  -11.7930    8.0190 O   0  0  0  0  0  0  0  0  0  0  0  0
  -21.3410  -12.4760    7.7220 C   0  0  0  0  0  0  0  0  0  0  0  0
  -21.2940  -13.2200    6.5700 O   0  0  0  0  0  0  0  0  0  0  0  0
  -21.6520  -13.4580    4.1720 C   0  0  0  0  0  0  0  0  0  0  0  0
  -21.7800  -12.5460    5.3950 C   0  0  0  0  0  0  0  0  0  0  0  0
  -13.3200  -14.6370   13.8460 O   0  0  0  0  0  0  0  0  0  0  0  0
  -12.6660  -12.5210   14.4520 N   0  0  0  0  0  0  0  0  0  0  0  0
  -13.3860  -13.4090   13.7420 C   0  0  0  0  0  0  0  0  0  0  0  0
  -11.0160  -11.7910   16.3040 O   0  0  0  0  0  0  0  0  0  0  0  0
  -12.2520  -13.9530   16.5740 O   0  0  0  0  0  0  0  0  0  0  0  0
  -11.5490  -13.0300   15.5660 S   0  0  0  0  0  0  0  0  0  0  0  0
  -10.1570  -13.9760   14.7840 C   0  0  0  0  0  0  0  0  0  0  0  0
   -7.7800  -12.1020   11.8400 C   0  0  0  0  0  0  0  0  0  0  0  0
   -7.2800  -12.3030   13.1290 C   0  0  0  0  0  0  0  0  0  0  0  0
   -9.0790  -12.5160   11.5260 C   0  0  0  0  0  0  0  0  0  0  0  0
   -8.0790  -12.9210   14.0990 C   0  0  0  0  0  0  0  0  0  0  0  0
   -9.8790  -13.1270   12.4960 C   0  0  0  0  0  0  0  0  0  0  0  0
   -9.3940  -13.3070   13.8010 C   0  0  0  0  0  0  0  0  0  0  0  0
  1  3  1  0  0  0  0
  1  5  1  0  0  0  0
  2  4  1  0  0  0  0
  2  5  1  0  0  0  0
  3  6  1  0  0  0  0
  4  6  1  0  0  0  0
  5 23  1  0  0  0  0
  6 13  1  0  0  0  0
  7 10  1  0  0  0  0
  8 12  2  0  0  0  0
  8 11  1  0  0  0  0
  9 10  2  0  0  0  0
  9 13  1  0  0  0  0
 10 12  1  0  0  0  0
 11 15  1  0  0  0  0
 11 13  2  0  0  0  0
 12 17  1  0  0  0  0
 14 15  3  0  0  0  0
 16 17  2  0  0  0  0
 17 18  1  0  0  0  0
 18 20  1  0  0  0  0
 19 20  1  0  0  0  0
 21 23  2  0  0  0  0
 22 23  1  0  0  0  0
 22 26  1  0  0  0  0
 24 26  2  0  0  0  0
 25 26  2  0  0  0  0
 26 27  1  0  0  0  0
 27 33  1  0  0  0  0
 28 30  2  0  0  0  0
 28 29  1  0  0  0  0
 29 31  2  0  0  0  0
 30 32  1  0  0  0  0
 31 33  1  0  0  0  0
 32 33  2  0  0  0  0
M  END
>  <COMPND>
    UNNAMED

>  <AUTHOR>
    GENERATED BY OPEN BABEL 2.4.90

>  <MASTER>
        0    0    0    0    0    0    0    0   33    0   33    0

