__3hy7_A_rec_3b8z_294_lig_min.pdb
 OpenBabel10171921453D

 30 32  0  0  0  0  0  0  0  0999 V2000
   12.0660    9.3180   34.9790 C   0  0  0  0  0  0  0  0  0  0  0  0
   12.0890    9.4800   36.3460 C   0  0  0  0  0  0  0  0  0  0  0  0
   13.2310    9.9820   36.9420 C   0  0  0  0  0  0  0  0  0  0  0  0
   14.3310   10.3060   36.1750 C   0  0  0  0  0  0  0  0  0  0  0  0
   14.2940   10.1380   34.8030 C   0  0  0  0  0  0  0  0  0  0  0  0
   13.1580    9.6420   34.2050 C   0  0  0  0  0  0  0  0  0  0  0  0
   10.6020    8.6580   34.1910 S   0  0  0  0  0  0  0  0  0  0  0  0
   11.0880    7.6990   33.2130 O   0  0  0  0  0  0  0  0  0  0  0  0
    9.7730    8.1270   35.2540 O   0  0  0  0  0  0  0  0  0  0  0  0
   10.3560   10.1540   31.9500 C   0  0  0  0  0  0  0  0  0  0  0  0
    9.7150    9.9210   33.3150 C   0  0  0  0  0  0  0  0  0  0  0  0
    8.2770    9.4700   33.1210 C   0  0  0  0  0  0  0  0  0  0  0  0
    7.5290   10.3990   32.1910 C   0  0  0  0  0  0  0  0  0  0  0  0
    8.1740   10.3440   30.9220 O   0  0  0  0  0  0  0  0  0  0  0  0
    9.4570   10.9620   31.0320 C   0  0  0  0  0  0  0  0  0  0  0  0
    9.2360   12.0830   36.2170 O   0  0  0  0  0  0  0  0  0  0  0  0
    8.8980   11.1350   35.2220 N   0  0  0  0  0  0  0  0  0  0  0  0
    9.7920   11.1600   34.1620 C   0  0  0  0  0  0  0  0  0  0  0  0
   10.5860   12.0590   33.9190 O   0  0  0  0  0  0  0  0  0  0  0  0
   15.4600   10.8150   36.8210 O   0  0  0  0  0  0  0  0  0  0  0  0
   16.5330    9.9400   36.9090 C   0  0  0  0  0  0  0  0  0  0  0  0
   17.7820   10.3910   36.5430 C   0  0  0  0  0  0  0  0  0  0  0  0
   18.8590    9.5380   36.6170 C   0  0  0  0  0  0  0  0  0  0  0  0
   18.6840    8.2450   37.0630 C   0  0  0  0  0  0  0  0  0  0  0  0
   17.4280    7.8100   37.4340 C   0  0  0  0  0  0  0  0  0  0  0  0
   16.3380    8.6540   37.3630 C   0  0  0  0  0  0  0  0  0  0  0  0
   19.8570    7.3250   37.1330 C   0  0  0  0  0  0  0  0  0  0  0  0
   19.8430    6.4920   38.1970 F   0  0  0  0  0  0  0  0  0  0  0  0
   21.0540    7.9700   37.1490 F   0  0  0  0  0  0  0  0  0  0  0  0
   19.9190    6.4820   36.0740 F   0  0  0  0  0  0  0  0  0  0  0  0
  1  7  1  0  0  0  0
  1  6  2  0  0  0  0
  1  2  1  0  0  0  0
  2  3  2  0  0  0  0
  3  4  1  0  0  0  0
  4  5  2  0  0  0  0
  4 20  1  0  0  0  0
  5  6  1  0  0  0  0
  7  8  2  0  0  0  0
  7 11  1  0  0  0  0
  7  9  2  0  0  0  0
 10 15  1  0  0  0  0
 10 11  1  0  0  0  0
 11 12  1  0  0  0  0
 11 18  1  0  0  0  0
 12 13  1  0  0  0  0
 13 14  1  0  0  0  0
 14 15  1  0  0  0  0
 16 17  1  0  0  0  0
 17 18  1  0  0  0  0
 18 19  2  0  0  0  0
 20 21  1  0  0  0  0
 21 22  2  0  0  0  0
 21 26  1  0  0  0  0
 22 23  1  0  0  0  0
 23 24  2  0  0  0  0
 24 27  1  0  0  0  0
 24 25  1  0  0  0  0
 25 26  2  0  0  0  0
 27 30  1  0  0  0  0
 27 29  1  0  0  0  0
 27 28  1  0  0  0  0
M  END
>  <COMPND>
    UNNAMED

>  <AUTHOR>
    GENERATED BY OPEN BABEL 2.4.90

>  <MASTER>
        0    0    0    0    0    0    0    0   30    0   30    0

