__3ljt_A_rec_3hyg_099_lig_min.pdb
 OpenBabel10171921473D

 27 29  0  0  1  0  0  0  0  0999 V2000
   11.9720    9.6040   35.2300 C   0  0  2  0  0  0  0  0  0  0  0  0
   12.3800    8.2270   34.8130 C   0  0  0  0  0  0  0  0  0  0  0  0
   13.1820    8.1870   33.7090 N   0  0  0  0  0  0  0  0  0  0  0  0
   12.0180    7.2270   35.4170 O   0  0  0  0  0  0  0  0  0  0  0  0
   14.6730    5.6360   30.0110 C   0  0  0  0  0  0  0  0  0  0  0  0
   12.4780    7.0970   30.9150 C   0  0  0  0  0  0  0  0  0  0  0  0
   13.4570    6.6670   31.7730 C   0  0  0  0  0  0  0  0  0  0  0  0
   13.6990    6.0610   29.1330 C   0  0  0  0  0  0  0  0  0  0  0  0
   12.6130    6.7870   29.5760 C   0  0  0  0  0  0  0  0  0  0  0  0
   15.4560    5.5930   32.4520 C   0  0  0  0  0  0  0  0  0  0  0  0
   14.5330    5.9440   31.3450 C   0  0  0  0  0  0  0  0  0  0  0  0
   14.9010    6.3960   33.6250 C   0  0  2  0  0  0  0  0  0  0  0  0
   13.5110    6.8700   33.2350 C   0  0  1  0  0  0  0  0  0  0  0  0
   15.7060    7.5430   33.8940 O   0  0  0  0  0  0  0  0  0  0  0  0
   12.2860    9.7550   36.7020 C   0  0  0  0  0  0  0  0  0  0  0  0
   14.1700    9.6550   38.3200 C   0  0  0  0  0  0  0  0  0  0  0  0
   16.4260   10.1220   37.6850 C   0  0  0  0  0  0  0  0  0  0  0  0
   14.6560   10.2010   36.0590 C   0  0  0  0  0  0  0  0  0  0  0  0
   15.9800   10.3140   36.4010 C   0  0  0  0  0  0  0  0  0  0  0  0
   15.5050    9.7830   38.6560 C   0  0  0  0  0  0  0  0  0  0  0  0
   13.7380    9.8660   37.0310 C   0  0  0  0  0  0  0  0  0  0  0  0
   16.8740   10.6580   35.4140 O   0  0  0  0  0  0  0  0  0  0  0  0
   10.4750    9.7190   34.9830 C   0  0  0  0  0  0  0  0  0  0  0  0
   10.0850   11.1610   35.0300 C   0  0  0  0  0  0  0  0  0  0  0  0
    9.1880   11.4210   36.0250 N   0  0  0  0  0  0  0  0  0  0  0  0
    8.9920   12.7850   36.2950 O   0  0  0  0  0  0  0  0  0  0  0  0
   10.5220   12.0070   34.2690 O   0  0  0  0  0  0  0  0  0  0  0  0
  1  2  1  0  0  0  0
  1 23  1  1  0  0  0
  1 15  1  0  0  0  0
  2  3  1  0  0  0  0
  2  4  2  0  0  0  0
  5  8  2  0  0  0  0
  5 11  1  0  0  0  0
  6  9  2  0  0  0  0
  6  7  1  0  0  0  0
  7 11  2  0  0  0  0
  7 13  1  0  0  0  0
  8  9  1  0  0  0  0
 10 11  1  0  0  0  0
 10 12  1  0  0  0  0
 12 13  1  0  0  0  0
 12 14  1  6  0  0  0
 13  3  1  6  0  0  0
 15 21  1  0  0  0  0
 16 21  2  0  0  0  0
 16 20  1  0  0  0  0
 17 19  1  0  0  0  0
 17 20  2  0  0  0  0
 18 19  2  0  0  0  0
 18 21  1  0  0  0  0
 19 22  1  0  0  0  0
 23 24  1  0  0  0  0
 24 27  2  0  0  0  0
 24 25  1  0  0  0  0
 25 26  1  0  0  0  0
M  END
>  <COMPND>
    UNNAMED

>  <AUTHOR>
    GENERATED BY OPEN BABEL 2.4.90

>  <MASTER>
        0    0    0    0    0    0    0    0   27    0   27    0

