__1ogg_A_rec_4z2l_m6f_lig_min.pdb
 OpenBabel10181906033D

 46 46  0  0  1  0  0  0  0  0999 V2000
  -24.0210    5.7850  -31.8230 C   0  0  2  0  0  0  0  0  0  0  0  0
  -23.5010    4.3600  -32.0420 C   0  0  2  0  0  0  0  0  0  0  0  0
  -24.1780    1.8760  -32.2190 C   0  0  1  0  0  0  0  0  0  0  0  0
  -25.2620    6.0640  -33.7870 O   0  0  0  0  0  0  0  0  0  0  0  0
  -25.2800    6.0380  -32.5760 C   0  0  0  0  0  0  0  0  0  0  0  0
  -23.0170    6.8420  -32.2240 C   0  0  0  0  0  0  0  0  0  0  0  0
  -26.5140    6.1440  -31.8150 O   0  0  0  0  0  0  0  0  0  0  0  0
  -27.7260    6.3640  -32.5280 C   0  0  1  0  0  0  0  0  0  0  0  0
  -28.6410    5.1540  -32.3510 C   0  0  2  0  0  0  0  0  0  0  0  0
  -29.9700    5.5440  -32.6810 O   0  0  0  0  0  0  0  0  0  0  0  0
  -28.6580    4.6840  -30.9010 C   0  0  0  0  0  0  0  0  0  0  0  0
  -28.2260    4.0360  -33.3010 C   0  0  2  0  0  0  0  0  0  0  0  0
  -28.4270    4.5200  -34.6200 O   0  0  0  0  0  0  0  0  0  0  0  0
  -27.7240    2.2340  -35.1390 O   0  0  0  0  0  0  0  0  0  0  0  0
  -28.5140    1.6440  -34.1180 C   0  0  2  0  0  0  0  0  0  0  0  0
  -29.0030    2.7190  -33.1540 C   0  0  2  0  0  0  0  0  0  0  0  0
  -30.4830    2.9310  -33.4160 C   0  0  0  0  0  0  0  0  0  0  0  0
  -27.6900    0.5680  -33.4370 C   0  0  2  0  0  0  0  0  0  0  0  0
  -28.6710   -0.3440  -32.7110 C   0  0  0  0  0  0  0  0  0  0  0  0
  -26.6160    1.1500  -32.5050 C   0  0  0  0  0  0  0  0  0  0  0  0
  -25.2290    1.2810  -33.1520 C   0  0  1  0  0  0  0  0  0  0  0  0
  -25.2350    2.1710  -34.2430 O   0  0  0  0  0  0  0  0  0  0  0  0
  -24.7600   -0.0610  -33.6610 C   0  0  0  0  0  0  0  0  0  0  0  0
  -24.5750    3.2900  -31.7920 C   0  0  1  0  0  0  0  0  0  0  0  0
  -24.9890    3.2670  -30.3290 C   0  0  0  0  0  0  0  0  0  0  0  0
  -28.3510    7.6300  -31.9410 C   0  0  0  0  0  0  0  0  0  0  0  0
  -27.6830    8.8740  -32.5140 C   0  0  0  0  0  0  0  0  0  0  0  0
  -22.4440    4.2270  -31.0980 O   0  0  0  0  0  0  0  0  0  0  0  0
  -20.4770    2.9340  -31.2330 N   0  0  0  0  0  0  0  0  0  0  0  0
  -20.8800    4.5390  -32.7370 O   0  0  0  0  0  0  0  0  0  0  0  0
  -21.1530    3.9740  -31.6840 C   0  0  0  0  0  0  0  0  0  0  0  0
  -19.3490    2.2660  -31.8750 C   0  0  0  0  0  0  0  0  0  0  0  0
  -19.6090    0.7650  -31.6950 C   0  0  0  0  0  0  0  0  0  0  0  0
  -19.3400    0.2970  -30.2520 C   0  0  0  0  0  0  0  0  0  0  0  0
  -19.4880   -1.1610  -30.2050 N   0  0  0  0  0  0  0  0  0  0  0  0
  -19.7120   -1.8900  -29.1810 C   0  0  0  0  0  0  0  0  0  0  0  0
  -19.2310   -1.6070  -28.0570 N   0  0  0  0  0  0  0  0  0  0  0  0
  -20.3620   -3.0460  -29.2340 N   0  0  0  0  0  0  0  0  0  0  0  0
  -20.0730   -4.0100  -30.1180 C   0  0  0  0  0  0  0  0  0  0  0  0
  -19.0490   -3.9710  -30.7780 O   0  0  0  0  0  0  0  0  0  0  0  0
  -20.8680   -4.9910  -30.1760 N   0  0  0  0  0  0  0  0  0  0  0  0
  -20.7900   -6.2000  -30.9770 C   0  0  0  0  0  0  0  0  0  0  0  0
  -24.0070    0.9990  -31.0950 O   0  0  0  0  0  0  0  0  0  0  0  0
  -22.8100    0.2410  -31.2370 C   0  0  0  0  0  0  0  0  0  0  0  0
  -23.0210   -1.1450  -30.8030 C   0  0  0  0  0  0  0  0  0  0  0  0
  -23.2250   -2.3580  -30.4490 C   0  0  0  0  0  0  0  0  0  0  0  0
  1  5  1  0  0  0  0
  1  2  1  0  0  0  0
  1  6  1  6  0  0  0
  2 24  1  0  0  0  0
  2 28  1  1  0  0  0
  3 21  1  0  0  0  0
  3 24  1  0  0  0  0
  3 43  1  1  0  0  0
  4  5  2  0  0  0  0
  5  7  1  0  0  0  0
  7  8  1  0  0  0  0
  8  9  1  0  0  0  0
  8 26  1  1  0  0  0
  9 12  1  0  0  0  0
  9 10  1  0  0  0  0
  9 11  1  1  0  0  0
 12 13  1  6  0  0  0
 12 16  1  0  0  0  0
 15 14  1  6  0  0  0
 15 18  1  0  0  0  0
 15 16  1  0  0  0  0
 16 17  1  6  0  0  0
 18 19  1  1  0  0  0
 18 20  1  0  0  0  0
 20 21  1  0  0  0  0
 21 23  1  6  0  0  0
 21 22  1  0  0  0  0
 24 25  1  1  0  0  0
 26 27  1  0  0  0  0
 28 31  1  0  0  0  0
 29 31  1  0  0  0  0
 29 32  1  0  0  0  0
 30 31  2  0  0  0  0
 32 33  1  0  0  0  0
 33 34  1  0  0  0  0
 34 35  1  0  0  0  0
 35 36  1  0  0  0  0
 36 38  1  0  0  0  0
 36 37  2  0  0  0  0
 38 39  1  0  0  0  0
 39 40  2  0  0  0  0
 39 41  1  0  0  0  0
 41 42  1  0  0  0  0
 43 44  1  0  0  0  0
 44 45  1  0  0  0  0
 45 46  3  0  0  0  0
M  END
>  <COMPND>
    UNNAMED

>  <AUTHOR>
    GENERATED BY OPEN BABEL 2.4.90

>  <MASTER>
        0    0    0    0    0    0    0    0   46    0   46    0

