__1w1y_A_rec_1w1p_gio_lig_min.pdb
 OpenBabel10181906413D

 11 12  0  0  1  0  0  0  0  0999 V2000
  -23.7730   -2.2340  -30.1900 O   0  0  0  0  0  0  0  0  0  0  0  0
  -22.6880   -1.9170  -30.6770 C   0  0  0  0  0  0  0  0  0  0  0  0
  -21.7820   -2.9740  -31.3150 C   0  0  2  0  0  0  0  0  0  0  0  0
  -21.8560   -4.2960  -30.5470 C   0  0  0  0  0  0  0  0  0  0  0  0
  -20.5930   -4.9740  -31.0830 C   0  0  0  0  0  0  0  0  0  0  0  0
  -19.5440   -3.8720  -30.9090 C   0  0  0  0  0  0  0  0  0  0  0  0
  -20.3550   -2.6550  -31.1480 N   0  0  0  0  0  0  0  0  0  0  0  0
  -19.9550   -1.3130  -31.1330 C   0  0  0  0  0  0  0  0  0  0  0  0
  -18.7670   -1.0340  -30.9940 O   0  0  0  0  0  0  0  0  0  0  0  0
  -20.9820   -0.1860  -31.2840 C   0  0  0  0  0  0  0  0  0  0  0  0
  -22.2580   -0.5840  -30.6460 N   0  0  0  0  0  0  0  0  0  0  0  0
  1  2  2  0  0  0  0
  2  3  1  0  0  0  0
  2 11  1  0  0  0  0
  3  7  1  0  0  0  0
  3  4  1  1  0  0  0
  4  5  1  0  0  0  0
  5  6  1  0  0  0  0
  6  7  1  0  0  0  0
  7  8  1  0  0  0  0
  8 10  1  0  0  0  0
  8  9  2  0  0  0  0
 10 11  1  0  0  0  0
M  END
>  <COMPND>
    UNNAMED

>  <AUTHOR>
    GENERATED BY OPEN BABEL 2.4.90

>  <MASTER>
        0    0    0    0    0    0    0    0   11    0   11    0

