__3wd4_A_rec_3wd4_qub_lig_min.pdb
 OpenBabel10181905303D

 16 17  0  0  0  0  0  0  0  0999 V2000
  -19.6650    3.1530  -22.6590 C   0  0  0  0  0  0  0  0  0  0  0  0
  -19.1960    2.2680  -23.5950 C   0  0  0  0  0  0  0  0  0  0  0  0
  -18.1230    1.4520  -23.3010 C   0  0  0  0  0  0  0  0  0  0  0  0
  -17.5150    1.5440  -22.0770 C   0  0  0  0  0  0  0  0  0  0  0  0
  -17.9850    2.4490  -21.1430 C   0  0  0  0  0  0  0  0  0  0  0  0
  -19.0670    3.2560  -21.4310 C   0  0  0  0  0  0  0  0  0  0  0  0
  -19.5190    4.1240  -20.5210 N   0  0  0  0  0  0  0  0  0  0  0  0
  -20.5370    4.9160  -20.7580 C   0  0  0  0  0  0  0  0  0  0  0  0
  -21.1730    4.8610  -21.9840 C   0  0  0  0  0  0  0  0  0  0  0  0
  -20.7370    3.9580  -22.9320 C   0  0  0  0  0  0  0  0  0  0  0  0
  -21.3610    3.9210  -24.1470 C   0  0  0  0  0  0  0  0  0  0  0  0
  -22.0550    5.0060  -24.3600 N   0  0  0  0  0  0  0  0  0  0  0  0
  -21.7310    5.9040  -25.2970 O   0  0  0  0  0  0  0  0  0  0  0  0
  -22.0690    7.1890  -24.7920 C   0  0  0  0  0  0  0  0  0  0  0  0
  -22.2040    8.0620  -25.8530 C   0  0  0  0  0  0  0  0  0  0  0  0
  -21.1710    8.9140  -26.1890 C   0  0  0  0  0  0  0  0  0  0  0  0
  1  2  2  0  0  0  0
  1 10  1  0  0  0  0
  1  6  1  0  0  0  0
  2  3  1  0  0  0  0
  3  4  2  0  0  0  0
  4  5  1  0  0  0  0
  5  6  2  0  0  0  0
  6  7  1  0  0  0  0
  7  8  2  0  0  0  0
  8  9  1  0  0  0  0
  9 10  2  0  0  0  0
 10 11  1  0  0  0  0
 11 12  1  0  0  0  0
 12 13  1  0  0  0  0
 13 14  1  0  0  0  0
 14 15  1  0  0  0  0
 15 16  1  0  0  0  0
M  END
>  <COMPND>
    UNNAMED

>  <AUTHOR>
    GENERATED BY OPEN BABEL 2.4.90

>  <MASTER>
        0    0    0    0    0    0    0    0   16    0   16    0

