__4z2g_A_rec_3wd4_a1l_lig_min.pdb
 OpenBabel10181906443D

 36 37  0  0  1  0  0  0  0  0999 V2000
  -22.3940    3.6140  -29.6810 C   0  0  2  0  0  0  0  0  0  0  0  0
  -22.5780    4.9290  -29.0450 N   0  0  0  0  0  0  0  0  0  0  0  0
  -21.7560    5.9730  -29.2200 C   0  0  0  0  0  0  0  0  0  0  0  0
  -20.7480    5.9500  -29.9030 O   0  0  0  0  0  0  0  0  0  0  0  0
  -22.1250    7.2610  -28.5010 C   0  0  0  0  0  0  0  0  0  0  0  0
  -20.9240    8.0810  -28.2720 N   0  0  0  0  0  0  0  0  0  0  0  0
  -20.5700    8.0510  -27.2130 N   0  0  0  0  0  4  0  0  0  0  0  0
  -20.2040    8.0360  -26.1650 N   0  0  0  0  0  0  0  0  0  0  0  0
  -23.6140    3.3580  -30.5760 C   0  0  0  0  0  0  0  0  0  0  0  0
  -24.7210    3.2080  -30.0680 O   0  0  0  0  0  0  0  0  0  0  0  0
  -23.4240    3.3270  -31.9020 N   0  0  0  0  0  0  0  0  0  0  0  0
  -24.5670    3.2020  -32.8120 C   0  0  0  0  0  0  0  0  0  0  0  0
  -24.8190    1.8000  -33.2940 C   0  0  0  0  0  0  0  0  0  0  0  0
  -25.5000    0.9160  -32.4840 C   0  0  0  0  0  0  0  0  0  0  0  0
  -25.7340   -0.3570  -32.9470 C   0  0  0  0  0  0  0  0  0  0  0  0
  -25.3030   -0.7370  -34.2030 C   0  0  0  0  0  0  0  0  0  0  0  0
  -24.6290    0.1540  -35.0110 C   0  0  0  0  0  0  0  0  0  0  0  0
  -24.3870    1.4310  -34.5570 C   0  0  0  0  0  0  0  0  0  0  0  0
  -22.1220    3.5370  -32.5410 C   0  0  0  0  0  0  0  0  0  0  0  0
  -21.1460    2.4490  -32.1200 C   0  0  0  0  0  0  0  0  0  0  0  0
  -19.8360    2.7970  -31.8760 C   0  0  0  0  0  0  0  0  0  0  0  0
  -18.9380    1.8410  -31.4800 C   0  0  0  0  0  0  0  0  0  0  0  0
  -19.3500    0.5300  -31.3170 C   0  0  0  0  0  0  0  0  0  0  0  0
  -20.6610    0.1720  -31.5680 C   0  0  0  0  0  0  0  0  0  0  0  0
  -21.5740    1.1350  -31.9680 C   0  0  0  0  0  0  0  0  0  0  0  0
  -22.3800    2.5450  -28.5800 C   0  0  0  0  0  0  0  0  0  0  0  0
  -20.9980    1.9550  -28.3140 C   0  0  0  0  0  0  0  0  0  0  0  0
  -20.9990    0.7940  -27.3370 C   0  0  0  0  0  0  0  0  0  0  0  0
  -21.1850   -0.4890  -28.0120 N   0  0  0  0  0  0  0  0  0  0  0  0
  -20.2380   -1.3560  -28.3030 C   0  0  0  0  0  0  0  0  0  0  0  0
  -18.9710   -1.0500  -28.1100 N   0  0  0  0  0  0  0  0  0  0  0  0
  -19.9730   -5.2290  -31.1350 C   0  0  0  0  0  0  0  0  0  0  0  0
  -20.5990   -4.3700  -30.1310 N   0  0  0  0  0  0  0  0  0  0  0  0
  -19.9970   -3.2530  -29.7690 C   0  0  0  0  0  0  0  0  0  0  0  0
  -18.9460   -2.9020  -30.2500 O   0  0  0  0  0  0  0  0  0  0  0  0
  -20.6100   -2.5170  -28.8300 N   0  0  0  0  0  0  0  0  0  0  0  0
  1  9  1  0  0  0  0
  1  2  1  0  0  0  0
  1 26  1  1  0  0  0
  2  3  1  0  0  0  0
  3  4  2  0  0  0  0
  3  5  1  0  0  0  0
  5  6  1  0  0  0  0
  6  7  2  0  0  0  0
  7  8  2  0  0  0  0
  9 11  1  0  0  0  0
  9 10  2  0  0  0  0
 11 12  1  0  0  0  0
 11 19  1  0  0  0  0
 12 13  1  0  0  0  0
 13 18  2  0  0  0  0
 13 14  1  0  0  0  0
 14 15  2  0  0  0  0
 15 16  1  0  0  0  0
 16 17  2  0  0  0  0
 17 18  1  0  0  0  0
 19 20  1  0  0  0  0
 20 21  2  0  0  0  0
 20 25  1  0  0  0  0
 21 22  1  0  0  0  0
 22 23  2  0  0  0  0
 23 24  1  0  0  0  0
 24 25  2  0  0  0  0
 26 27  1  0  0  0  0
 27 28  1  0  0  0  0
 28 29  1  0  0  0  0
 29 30  1  0  0  0  0
 30 31  2  0  0  0  0
 30 36  1  0  0  0  0
 32 33  1  0  0  0  0
 33 34  1  0  0  0  0
 34 35  2  0  0  0  0
 34 36  1  0  0  0  0
M  END
>  <COMPND>
    UNNAMED

>  <AUTHOR>
    GENERATED BY OPEN BABEL 2.4.90

>  <MASTER>
        0    0    0    0    0    0    0    0   36    0   36    0

