__4z2l_A_rec_4z2j_m6g_lig_min.pdb
 OpenBabel10181908203D

 51 52  0  0  1  0  0  0  0  0999 V2000
  -25.8210    5.9680  -33.5930 C   0  0  0  0  0  0  0  0  0  0  0  0
  -24.4950    5.8120  -32.8900 C   0  0  1  0  0  0  0  0  0  0  0  0
  -24.0030    4.3610  -32.9780 C   0  0  2  0  0  0  0  0  0  0  0  0
  -25.0720    3.3560  -32.5700 C   0  0  1  0  0  0  0  0  0  0  0  0
  -24.6870    1.9490  -33.0140 C   0  0  2  0  0  0  0  0  0  0  0  0
  -25.6810    1.3760  -34.0130 C   0  0  1  0  0  0  0  0  0  0  0  0
  -25.8800    6.0660  -34.8050 O   0  0  0  0  0  0  0  0  0  0  0  0
  -27.0500    5.9650  -32.8000 O   0  0  0  0  0  0  0  0  0  0  0  0
  -25.4010    3.4800  -31.0880 C   0  0  0  0  0  0  0  0  0  0  0  0
  -23.4690    6.7890  -33.4370 C   0  0  0  0  0  0  0  0  0  0  0  0
  -28.2270    6.3400  -33.5630 C   0  0  1  0  0  0  0  0  0  0  0  0
  -29.3280    5.3120  -33.3090 C   0  0  2  0  0  0  0  0  0  0  0  0
  -30.5890    5.8490  -33.7270 O   0  0  0  0  0  0  0  0  0  0  0  0
  -29.3530    5.0250  -31.8120 C   0  0  0  0  0  0  0  0  0  0  0  0
  -28.9710    4.1060  -34.1870 C   0  0  1  0  0  0  0  0  0  0  0  0
  -29.5070    2.7290  -33.8270 C   0  0  1  0  0  0  0  0  0  0  0  0
  -31.0270    2.6700  -33.6820 C   0  0  0  0  0  0  0  0  0  0  0  0
  -29.4030    4.3710  -35.5150 O   0  0  0  0  0  0  0  0  0  0  0  0
  -28.7850    3.5280  -36.4940 C   0  0  0  0  0  0  0  0  0  0  0  0
  -27.7120    4.2950  -37.2540 C   0  0  0  0  0  0  0  0  0  0  0  0
  -29.8910    3.0590  -37.4250 C   0  0  0  0  0  0  0  0  0  0  0  0
  -28.1250    2.4260  -35.8560 O   0  0  0  0  0  0  0  0  0  0  0  0
  -28.9740    1.7760  -34.9090 C   0  0  1  0  0  0  0  0  0  0  0  0
  -28.1400    0.6750  -34.2910 C   0  0  2  0  0  0  0  0  0  0  0  0
  -29.0920   -0.2440  -33.5510 C   0  0  0  0  0  0  0  0  0  0  0  0
  -27.0490    1.2390  -33.3540 C   0  0  0  0  0  0  0  0  0  0  0  0
  -25.7580    2.2840  -35.1180 O   0  0  0  0  0  0  0  0  0  0  0  0
  -25.1840    0.0080  -34.4910 C   0  0  0  0  0  0  0  0  0  0  0  0
  -28.6670    7.7710  -33.2170 C   0  0  0  0  0  0  0  0  0  0  0  0
  -28.3010    8.7180  -34.3430 C   0  0  0  0  0  0  0  0  0  0  0  0
  -22.8920    4.2630  -32.1120 O   0  0  0  0  0  0  0  0  0  0  0  0
  -21.7480    3.7460  -34.0100 O   0  0  0  0  0  0  0  0  0  0  0  0
  -20.6720    3.3790  -32.1120 N   0  0  0  0  0  0  0  0  0  0  0  0
  -21.7130    3.7910  -32.8100 C   0  0  0  0  0  0  0  0  0  0  0  0
  -19.5290    2.7270  -32.7130 C   0  0  0  0  0  0  0  0  0  0  0  0
  -18.7800    1.9040  -31.6530 C   0  0  0  0  0  0  0  0  0  0  0  0
  -19.5560    0.6680  -31.1780 C   0  0  0  0  0  0  0  0  0  0  0  0
  -18.5460   -0.2450  -30.5240 C   0  0  0  0  0  0  0  0  0  0  0  0
  -18.6080   -0.2490  -29.0180 C   0  0  0  0  0  0  0  0  0  0  0  0
  -18.9950   -1.5530  -28.5470 N   0  0  0  0  0  0  0  0  0  0  0  0
  -20.2700   -1.9050  -28.5860 C   0  0  0  0  0  0  0  0  0  0  0  0
  -21.1620   -1.0820  -28.2340 N   0  0  0  0  0  0  0  0  0  0  0  0
  -19.1390   -3.3000  -30.7220 O   0  0  0  0  0  0  0  0  0  0  0  0
  -20.2630   -5.7970  -31.3780 C   0  0  0  0  0  0  0  0  0  0  0  0
  -20.6990   -4.8900  -30.3440 N   0  0  0  0  0  0  0  0  0  0  0  0
  -20.0940   -3.7330  -30.0680 C   0  0  0  0  0  0  0  0  0  0  0  0
  -20.6160   -3.1200  -28.9920 N   0  0  0  0  0  0  0  0  0  0  0  0
  -24.5760    1.0360  -31.9060 O   0  0  0  0  0  0  0  0  0  0  0  0
  -23.2110    0.6250  -31.7240 C   0  0  0  0  0  0  0  0  0  0  0  0
  -23.1150   -0.8170  -31.5000 C   0  0  0  0  0  0  0  0  0  0  0  0
  -23.0830   -2.0690  -31.2200 C   0  0  0  0  0  0  0  0  0  0  0  0
  1  7  2  0  0  0  0
  1  8  1  0  0  0  0
  1  2  1  0  0  0  0
  2 10  1  6  0  0  0
  2  3  1  0  0  0  0
  3  4  1  0  0  0  0
  3 31  1  1  0  0  0
  4  5  1  0  0  0  0
  4  9  1  1  0  0  0
  5  6  1  0  0  0  0
  5 48  1  1  0  0  0
  6 27  1  0  0  0  0
  6 28  1  6  0  0  0
  6 26  1  0  0  0  0
  8 11  1  0  0  0  0
 11 12  1  0  0  0  0
 11 29  1  1  0  0  0
 12 15  1  0  0  0  0
 12 13  1  0  0  0  0
 12 14  1  1  0  0  0
 15 18  1  6  0  0  0
 15 16  1  0  0  0  0
 16 23  1  0  0  0  0
 16 17  1  6  0  0  0
 18 19  1  0  0  0  0
 19 21  1  0  0  0  0
 19 20  1  0  0  0  0
 19 22  1  0  0  0  0
 23 22  1  6  0  0  0
 23 24  1  0  0  0  0
 24 25  1  1  0  0  0
 24 26  1  0  0  0  0
 29 30  1  0  0  0  0
 31 34  1  0  0  0  0
 32 34  2  0  0  0  0
 33 34  1  0  0  0  0
 33 35  1  0  0  0  0
 35 36  1  0  0  0  0
 36 37  1  0  0  0  0
 37 38  1  0  0  0  0
 38 39  1  0  0  0  0
 39 40  1  0  0  0  0
 40 41  1  0  0  0  0
 41 47  1  0  0  0  0
 41 42  2  0  0  0  0
 43 46  2  0  0  0  0
 44 45  1  0  0  0  0
 45 46  1  0  0  0  0
 46 47  1  0  0  0  0
 48 49  1  0  0  0  0
 49 50  1  0  0  0  0
 50 51  3  0  0  0  0
M  END
>  <COMPND>
    UNNAMED

>  <AUTHOR>
    GENERATED BY OPEN BABEL 2.4.90

>  <MASTER>
        0    0    0    0    0    0    0    0   51    0   51    0

