__1y8j_A_rec_1y8j_sts_lig_min.pdb
 OpenBabel10191921403D

 19 21  0  0  1  0  0  0  0  0999 V2000
   31.2960    3.3310   -7.3070 C   0  0  1  0  0  0  0  0  0  0  0  0
   30.7960    2.4940   -6.1910 C   0  0  0  0  0  0  0  0  0  0  0  0
   29.5240    2.4880   -5.7450 N   0  0  0  0  0  0  0  0  0  0  0  0
   29.4120    1.6280   -4.7330 C   0  0  0  0  0  0  0  0  0  0  0  0
   30.7540    1.0830   -4.5490 C   0  0  0  0  0  0  0  0  0  0  0  0
   31.5360    1.6410   -5.4720 N   0  0  0  0  0  0  0  0  0  0  0  0
   30.9360    0.1570   -3.5470 C   0  0  0  0  0  0  0  0  0  0  0  0
   29.8530   -0.2200   -2.7590 C   0  0  0  0  0  0  0  0  0  0  0  0
   28.6300    0.3000   -2.9460 N   0  0  0  0  0  0  0  0  0  0  0  0
   28.3840    1.2170   -3.8980 C   0  0  0  0  0  0  0  0  0  0  0  0
   29.7630    1.9630   -9.2320 S   0  0  0  0  0  0  0  0  0  0  0  0
   30.2200    3.4950   -8.3740 C   0  0  0  0  0  0  0  0  0  0  0  0
   31.6440    4.7140   -6.7670 C   0  0  0  0  0  0  0  0  0  0  0  0
   32.9770    4.7120   -6.0650 C   0  0  0  0  0  0  0  0  0  0  0  0
   33.0660    5.0540   -4.7190 C   0  0  0  0  0  0  0  0  0  0  0  0
   34.3010    5.0590   -4.0770 C   0  0  0  0  0  0  0  0  0  0  0  0
   35.4480    4.7080   -4.7810 C   0  0  0  0  0  0  0  0  0  0  0  0
   35.3610    4.3720   -6.1280 C   0  0  0  0  0  0  0  0  0  0  0  0
   34.1240    4.3730   -6.7680 C   0  0  0  0  0  0  0  0  0  0  0  0
  1 12  1  6  0  0  0
  1 13  1  0  0  0  0
  1  2  1  0  0  0  0
  2  6  1  0  0  0  0
  2  3  2  0  0  0  0
  3  4  1  0  0  0  0
  4  5  2  0  0  0  0
  4 10  1  0  0  0  0
  5  6  1  0  0  0  0
  5  7  1  0  0  0  0
  7  8  2  0  0  0  0
  8  9  1  0  0  0  0
  9 10  2  0  0  0  0
 11 12  1  0  0  0  0
 13 14  1  0  0  0  0
 14 19  2  0  0  0  0
 14 15  1  0  0  0  0
 15 16  2  0  0  0  0
 16 17  1  0  0  0  0
 17 18  2  0  0  0  0
 18 19  1  0  0  0  0
M  END
>  <COMPND>
    UNNAMED

>  <AUTHOR>
    GENERATED BY OPEN BABEL 2.4.90

>  <MASTER>
        0    0    0    0    0    0    0    0   19    0   19    0

