__2qpj_A_rec_1y8j_sts_lig_min.pdb
 OpenBabel10191921403D

 19 21  0  0  1  0  0  0  0  0999 V2000
   31.5430    3.3210   -6.7730 C   0  0  1  0  0  0  0  0  0  0  0  0
   30.8940    2.2700   -5.9540 C   0  0  0  0  0  0  0  0  0  0  0  0
   29.5630    2.1140   -5.8190 N   0  0  0  0  0  0  0  0  0  0  0  0
   29.3150    1.0810   -5.0150 C   0  0  0  0  0  0  0  0  0  0  0  0
   30.6310    0.5850   -4.6190 C   0  0  0  0  0  0  0  0  0  0  0  0
   31.5380    1.3440   -5.2340 N   0  0  0  0  0  0  0  0  0  0  0  0
   30.6770   -0.4950   -3.7670 C   0  0  0  0  0  0  0  0  0  0  0  0
   29.4900   -1.0670   -3.3210 C   0  0  0  0  0  0  0  0  0  0  0  0
   28.2930   -0.5900   -3.6970 N   0  0  0  0  0  0  0  0  0  0  0  0
   28.1750    0.4700   -4.5180 C   0  0  0  0  0  0  0  0  0  0  0  0
   30.1990    2.7080   -9.1690 S   0  0  0  0  0  0  0  0  0  0  0  0
   30.5720    3.8580   -7.8170 C   0  0  0  0  0  0  0  0  0  0  0  0
   31.9480    4.4750   -5.8620 C   0  0  0  0  0  0  0  0  0  0  0  0
   33.4280    4.4670   -5.5860 C   0  0  0  0  0  0  0  0  0  0  0  0
   33.9100    4.7550   -4.3130 C   0  0  0  0  0  0  0  0  0  0  0  0
   35.2800    4.7550   -4.0660 C   0  0  0  0  0  0  0  0  0  0  0  0
   36.1690    4.4530   -5.0920 C   0  0  0  0  0  0  0  0  0  0  0  0
   35.6880    4.1710   -6.3660 C   0  0  0  0  0  0  0  0  0  0  0  0
   34.3160    4.1770   -6.6110 C   0  0  0  0  0  0  0  0  0  0  0  0
  1 12  1  6  0  0  0
  1 13  1  0  0  0  0
  1  2  1  0  0  0  0
  2  6  1  0  0  0  0
  2  3  2  0  0  0  0
  3  4  1  0  0  0  0
  4  5  2  0  0  0  0
  4 10  1  0  0  0  0
  5  6  1  0  0  0  0
  5  7  1  0  0  0  0
  7  8  2  0  0  0  0
  8  9  1  0  0  0  0
  9 10  2  0  0  0  0
 11 12  1  0  0  0  0
 13 14  1  0  0  0  0
 14 19  2  0  0  0  0
 14 15  1  0  0  0  0
 15 16  2  0  0  0  0
 16 17  1  0  0  0  0
 17 18  2  0  0  0  0
 18 19  1  0  0  0  0
M  END
>  <COMPND>
    UNNAMED

>  <AUTHOR>
    GENERATED BY OPEN BABEL 2.4.90

>  <MASTER>
        0    0    0    0    0    0    0    0   19    0   19    0

