__4zr5_A_rec_4zr5_rdf_lig_min.pdb
 OpenBabel10191921413D

 37 39  0  0  1  0  0  0  0  0999 V2000
   31.0680    3.1870   -7.5450 C   0  0  1  0  0  0  0  0  0  0  0  0
   31.3580    2.1050   -6.5110 C   0  0  0  0  0  0  0  0  0  0  0  0
   32.5080    1.6550   -6.3700 O   0  0  0  0  0  0  0  0  0  0  0  0
   30.3190    1.6420   -5.7520 N   0  0  0  0  0  0  0  0  0  0  0  0
   30.5700    0.6030   -4.7420 C   0  0  2  0  0  0  0  0  0  0  0  0
   29.3140   -0.2590   -4.4200 C   0  0  0  0  0  0  0  0  0  0  0  0
   28.2180    0.2230   -4.8110 O   0  0  0  0  0  0  0  0  0  0  0  0
   29.4690   -1.3310   -3.8120 O   0  0  0  0  0  0  0  0  0  0  0  0
   31.0340    1.2840   -3.4650 C   0  0  0  0  0  0  0  0  0  0  0  0
   29.8940    1.9790   -2.8480 C   0  0  0  0  0  0  0  0  0  0  0  0
   29.1960    2.9930   -3.4630 C   0  0  0  0  0  0  0  0  0  0  0  0
   29.3020    1.7700   -1.5630 C   0  0  1  0  0  0  0  0  0  0  0  0
   28.1760    3.4370   -2.6120 N   0  0  0  0  0  0  0  0  0  0  0  0
   28.2290    2.6930   -1.4410 C   0  0  0  0  0  0  0  0  0  0  0  0
   29.5640    0.9050   -0.5090 C   0  0  0  0  0  0  0  0  0  0  0  0
   27.4350    2.7560   -0.2940 C   0  0  0  0  0  0  0  0  0  0  0  0
   28.7860    0.9690    0.6210 C   0  0  0  0  0  0  0  0  0  0  0  0
   27.7270    1.8850    0.7260 C   0  0  0  0  0  0  0  0  0  0  0  0
   29.6840    3.0530   -8.0220 N   0  0  0  0  0  0  0  0  0  0  0  0
   29.5580    2.5000   -9.6250 P   0  0  2  0  0  0  0  0  0  0  0  0
   30.0190    1.0620   -9.5370 O   0  0  0  0  0  0  0  0  0  0  0  0
   30.0610    3.4230  -10.6520 O   0  0  0  0  0  0  0  0  0  0  0  0
   27.8680    2.2730   -9.7280 O   0  0  0  0  0  0  0  0  0  0  0  0
   27.1420    1.3190   -9.0790 C   0  0  1  0  0  0  0  0  0  0  0  0
   25.6480    1.7820   -9.0770 C   0  0  2  0  0  0  0  0  0  0  0  0
   24.8410    0.8960   -8.3560 O   0  0  0  0  0  0  0  0  0  0  0  0
   25.1170    1.8490  -10.5470 C   0  0  2  0  0  0  0  0  0  0  0  0
   23.7330    2.0340  -10.5650 O   0  0  0  0  0  0  0  0  0  0  0  0
   25.4230    0.5150  -11.2820 C   0  0  1  0  0  0  0  0  0  0  0  0
   25.1340    0.7060  -12.6420 O   0  0  0  0  0  0  0  0  0  0  0  0
   26.9270    0.1890  -11.1130 C   0  0  1  0  0  0  0  0  0  0  0  0
   27.2310    0.0880   -9.7540 O   0  0  0  0  0  0  0  0  0  0  0  0
   27.1900   -1.1560  -11.7730 C   0  0  0  0  0  0  0  0  0  0  0  0
   31.3090    4.5830   -6.9810 C   0  0  0  0  0  0  0  0  0  0  0  0
   32.6870    4.7020   -6.3450 C   0  0  0  0  0  0  0  0  0  0  0  0
   32.7220    5.9640   -5.5200 C   0  0  0  0  0  0  0  0  0  0  0  0
   33.7600    4.7870   -7.4180 C   0  0  0  0  0  0  0  0  0  0  0  0
  1 19  1  0  0  0  0
  1 34  1  1  0  0  0
  1  2  1  0  0  0  0
  2  3  2  0  0  0  0
  2  4  1  0  0  0  0
  4  5  1  0  0  0  0
  5  6  1  0  0  0  0
  5  9  1  1  0  0  0
  6  7  2  0  0  0  0
  6  8  1  0  0  0  0
  9 10  1  0  0  0  0
 10 11  2  0  0  0  0
 10 12  1  0  0  0  0
 11 13  1  0  0  0  0
 12 14  1  0  0  0  0
 12 15  1  6  0  0  0
 13 14  2  0  0  0  0
 14 16  1  0  0  0  0
 15 17  2  0  0  0  0
 16 18  2  0  0  0  0
 17 18  1  0  0  0  0
 19 20  1  0  0  0  0
 20 22  2  6  0  0  0
 20 23  1  0  0  0  0
 20 21  1  0  0  0  0
 24 23  1  6  0  0  0
 24 32  1  0  0  0  0
 24 25  1  0  0  0  0
 25 27  1  0  0  0  0
 25 26  1  1  0  0  0
 27 29  1  0  0  0  0
 27 28  1  1  0  0  0
 29 30  1  6  0  0  0
 29 31  1  0  0  0  0
 31 33  1  6  0  0  0
 31 32  1  0  0  0  0
 34 35  1  0  0  0  0
 35 37  1  0  0  0  0
 35 36  1  0  0  0  0
M  END
>  <COMPND>
    UNNAMED

>  <AUTHOR>
    GENERATED BY OPEN BABEL 2.4.90

>  <MASTER>
        0    0    0    0    0    0    0    0   37    0   37    0

