__5jmy_A_rec_1y8j_sts_lig_min.pdb
 OpenBabel10191921283D

 19 21  0  0  1  0  0  0  0  0999 V2000
   31.0260    3.1590   -7.1180 C   0  0  1  0  0  0  0  0  0  0  0  0
   30.4980    2.1410   -6.1780 C   0  0  0  0  0  0  0  0  0  0  0  0
   29.1900    1.9190   -5.9410 N   0  0  0  0  0  0  0  0  0  0  0  0
   29.0610    0.9410   -5.0450 C   0  0  0  0  0  0  0  0  0  0  0  0
   30.4280    0.5560   -4.7040 C   0  0  0  0  0  0  0  0  0  0  0  0
   31.2430    1.3130   -5.4360 N   0  0  0  0  0  0  0  0  0  0  0  0
   30.5960   -0.4480   -3.7780 C   0  0  0  0  0  0  0  0  0  0  0  0
   29.4790   -1.0500   -3.2090 C   0  0  0  0  0  0  0  0  0  0  0  0
   28.2320   -0.6740   -3.5370 N   0  0  0  0  0  0  0  0  0  0  0  0
   27.9950    0.3070   -4.4250 C   0  0  0  0  0  0  0  0  0  0  0  0
   29.7300    2.5420   -9.5400 S   0  0  0  0  0  0  0  0  0  0  0  0
   29.9360    3.6060   -8.0850 C   0  0  0  0  0  0  0  0  0  0  0  0
   31.4820    4.3750   -6.3200 C   0  0  0  0  0  0  0  0  0  0  0  0
   32.9750    4.3770   -6.1230 C   0  0  0  0  0  0  0  0  0  0  0  0
   33.5190    4.4980   -4.8480 C   0  0  0  0  0  0  0  0  0  0  0  0
   34.9000    4.5090   -4.6730 C   0  0  0  0  0  0  0  0  0  0  0  0
   35.7380    4.3840   -5.7760 C   0  0  0  0  0  0  0  0  0  0  0  0
   35.1950    4.2690   -7.0510 C   0  0  0  0  0  0  0  0  0  0  0  0
   33.8130    4.2640   -7.2230 C   0  0  0  0  0  0  0  0  0  0  0  0
  1 12  1  6  0  0  0
  1 13  1  0  0  0  0
  1  2  1  0  0  0  0
  2  6  1  0  0  0  0
  2  3  2  0  0  0  0
  3  4  1  0  0  0  0
  4  5  2  0  0  0  0
  4 10  1  0  0  0  0
  5  6  1  0  0  0  0
  5  7  1  0  0  0  0
  7  8  2  0  0  0  0
  8  9  1  0  0  0  0
  9 10  2  0  0  0  0
 11 12  1  0  0  0  0
 13 14  1  0  0  0  0
 14 19  2  0  0  0  0
 14 15  1  0  0  0  0
 15 16  2  0  0  0  0
 16 17  1  0  0  0  0
 17 18  2  0  0  0  0
 18 19  1  0  0  0  0
M  END
>  <COMPND>
    UNNAMED

>  <AUTHOR>
    GENERATED BY OPEN BABEL 2.4.90

>  <MASTER>
        0    0    0    0    0    0    0    0   19    0   19    0

