__2cjg_A_rec_2cjg_pmp_lig_docked.pdb
 OpenBabel10191915003D

 16 16  0  0  0  0  0  0  0  0999 V2000
  -21.8970  -33.4410   37.4830 N   0  0  0  0  0  0  0  0  0  0  0  0
  -22.8670  -33.4720   36.4940 C   0  0  0  0  0  0  0  0  0  0  0  0
  -22.4700  -33.4850   35.0220 C   0  0  0  0  0  0  0  0  0  0  0  0
  -24.2320  -33.4990   36.8900 C   0  0  0  0  0  0  0  0  0  0  0  0
  -25.1880  -33.5200   35.9150 O   0  0  0  0  0  0  0  0  0  0  0  0
  -24.6030  -33.5050   38.2570 C   0  0  0  0  0  0  0  0  0  0  0  0
  -23.5910  -33.4740   39.2240 C   0  0  0  0  0  0  0  0  0  0  0  0
  -22.2390  -33.5160   38.8330 C   0  0  0  0  0  0  0  0  0  0  0  0
  -26.0720  -33.5850   38.7290 C   0  0  0  0  0  0  0  0  0  0  0  0
  -27.0920  -33.0840   37.8140 N   0  0  0  0  0  0  0  0  0  0  0  0
  -23.9280  -33.4260   40.7110 C   0  0  0  0  0  0  0  0  0  0  0  0
  -23.8590  -34.7540   41.2190 O   0  0  0  0  0  0  0  0  0  0  0  0
  -24.8920  -35.1660   42.4200 P   0  0  0  0  0  0  0  0  0  0  0  0
  -25.2360  -36.6430   42.1820 O   0  0  0  0  0  0  0  0  0  0  0  0
  -26.1060  -34.2550   42.3960 O   0  0  0  0  0  0  0  0  0  0  0  0
  -24.1380  -35.0810   43.7420 O   0  0  0  0  0  0  0  0  0  0  0  0
  1  2  2  0  0  0  0
  1  8  1  0  0  0  0
  2  3  1  0  0  0  0
  2  4  1  0  0  0  0
  4  5  1  0  0  0  0
  4  6  2  0  0  0  0
  6  9  1  0  0  0  0
  6  7  1  0  0  0  0
  7  8  2  0  0  0  0
  7 11  1  0  0  0  0
  9 10  1  0  0  0  0
 11 12  1  0  0  0  0
 12 13  1  0  0  0  0
 13 16  2  0  0  0  0
 13 15  1  0  0  0  0
 13 14  1  0  0  0  0
M  END
>  <MODEL>
       1

>  <COMPND>
    UNNAMED

>  <AUTHOR>
    GENERATED BY OPEN BABEL 2.4.90

>  <MASTER>
        0    0    0    0    0    0    0    0   16    0   16    0

