__2cjg_A_rec_2jje_plp_lig_min.pdb
 OpenBabel10191914583D

 15 15  0  0  0  0  0  0  0  0999 V2000
  -21.8870  -33.4130   37.4590 N   0  0  0  0  0  0  0  0  0  0  0  0
  -22.9170  -33.4590   36.5220 C   0  0  0  0  0  0  0  0  0  0  0  0
  -22.5980  -33.3250   35.0540 C   0  0  0  0  0  0  0  0  0  0  0  0
  -24.2330  -33.6350   36.9580 C   0  0  0  0  0  0  0  0  0  0  0  0
  -25.2630  -33.7780   36.0540 O   0  0  0  0  0  0  0  0  0  0  0  0
  -24.5050  -33.7650   38.3330 C   0  0  0  0  0  0  0  0  0  0  0  0
  -25.9160  -33.4800   38.7940 C   0  0  0  0  0  0  0  0  0  0  0  0
  -23.4560  -33.7190   39.2640 C   0  0  0  0  0  0  0  0  0  0  0  0
  -22.1510  -33.5420   38.8100 C   0  0  0  0  0  0  0  0  0  0  0  0
  -23.7320  -33.6350   40.7550 C   0  0  0  0  0  0  0  0  0  0  0  0
  -23.9280  -34.9310   41.2990 O   0  0  0  0  0  0  0  0  0  0  0  0
  -24.8870  -35.1550   42.5770 P   0  0  0  0  0  0  0  0  0  0  0  0
  -24.1470  -34.5950   43.7750 O   0  0  0  0  0  0  0  0  0  0  0  0
  -26.1690  -34.3470   42.4100 O   0  0  0  0  0  0  0  0  0  0  0  0
  -25.1570  -36.6260   42.7580 O   0  0  0  0  0  0  0  0  0  0  0  0
  1  2  2  0  0  0  0
  1  9  1  0  0  0  0
  2  3  1  0  0  0  0
  2  4  1  0  0  0  0
  4  5  1  0  0  0  0
  4  6  2  0  0  0  0
  6  7  1  0  0  0  0
  6  8  1  0  0  0  0
  8  9  2  0  0  0  0
  8 10  1  0  0  0  0
 10 11  1  0  0  0  0
 11 12  1  0  0  0  0
 12 14  2  0  0  0  0
 12 15  1  0  0  0  0
 12 13  1  0  0  0  0
M  END
>  <COMPND>
    UNNAMED

>  <AUTHOR>
    GENERATED BY OPEN BABEL 2.4.90

>  <MASTER>
        0    0    0    0    0    0    0    0   15    0   15    0

