__2jje_A_rec_2jjh_plp_lig_min.pdb
 OpenBabel10191914563D

 15 15  0  0  0  0  0  0  0  0999 V2000
  -21.7360  -33.5930   37.6800 N   0  0  0  0  0  0  0  0  0  0  0  0
  -22.7850  -33.5310   36.7840 C   0  0  0  0  0  0  0  0  0  0  0  0
  -22.5070  -33.3760   35.3180 C   0  0  0  0  0  0  0  0  0  0  0  0
  -24.1000  -33.6170   37.2470 C   0  0  0  0  0  0  0  0  0  0  0  0
  -25.1280  -33.3980   36.3660 O   0  0  0  0  0  0  0  0  0  0  0  0
  -24.3630  -33.7710   38.6190 C   0  0  0  0  0  0  0  0  0  0  0  0
  -25.7320  -33.4310   39.1570 C   0  0  0  0  0  0  0  0  0  0  0  0
  -23.2960  -33.8290   39.5310 C   0  0  0  0  0  0  0  0  0  0  0  0
  -21.9830  -33.7370   39.0410 C   0  0  0  0  0  0  0  0  0  0  0  0
  -23.5640  -33.5730   41.0040 C   0  0  0  0  0  0  0  0  0  0  0  0
  -23.8440  -34.8060   41.6310 O   0  0  0  0  0  0  0  0  0  0  0  0
  -24.8390  -34.9540   42.9030 P   0  0  0  0  0  0  0  0  0  0  0  0
  -24.1730  -34.3360   44.1250 O   0  0  0  0  0  0  0  0  0  0  0  0
  -26.1460  -34.2330   42.6150 O   0  0  0  0  0  0  0  0  0  0  0  0
  -25.1400  -36.4240   43.1630 O   0  0  0  0  0  0  0  0  0  0  0  0
  1  2  2  0  0  0  0
  1  9  1  0  0  0  0
  2  3  1  0  0  0  0
  2  4  1  0  0  0  0
  4  5  1  0  0  0  0
  4  6  2  0  0  0  0
  6  7  1  0  0  0  0
  6  8  1  0  0  0  0
  8  9  2  0  0  0  0
  8 10  1  0  0  0  0
 10 11  1  0  0  0  0
 11 12  1  0  0  0  0
 12 14  2  0  0  0  0
 12 15  1  0  0  0  0
 12 13  1  0  0  0  0
M  END
>  <COMPND>
    UNNAMED

>  <AUTHOR>
    GENERATED BY OPEN BABEL 2.4.90

>  <MASTER>
        0    0    0    0    0    0    0    0   15    0   15    0

