__2jje_A_rec_2jjg_plp_lig_min.pdb
 OpenBabel10191914583D

 15 15  0  0  0  0  0  0  0  0999 V2000
  -21.6760  -33.8270   37.8230 N   0  0  0  0  0  0  0  0  0  0  0  0
  -22.7230  -33.6300   36.9220 C   0  0  0  0  0  0  0  0  0  0  0  0
  -22.4320  -33.6590   35.4560 C   0  0  0  0  0  0  0  0  0  0  0  0
  -24.0270  -33.4270   37.3980 C   0  0  0  0  0  0  0  0  0  0  0  0
  -25.0820  -33.4310   36.5000 O   0  0  0  0  0  0  0  0  0  0  0  0
  -24.2430  -33.4160   38.8010 C   0  0  0  0  0  0  0  0  0  0  0  0
  -25.6150  -33.6810   39.3300 C   0  0  0  0  0  0  0  0  0  0  0  0
  -23.1770  -33.6070   39.6970 C   0  0  0  0  0  0  0  0  0  0  0  0
  -21.8980  -33.8220   39.1900 C   0  0  0  0  0  0  0  0  0  0  0  0
  -23.3410  -33.3680   41.1960 C   0  0  0  0  0  0  0  0  0  0  0  0
  -23.6920  -34.5530   41.8850 O   0  0  0  0  0  0  0  0  0  0  0  0
  -24.6980  -34.6160   43.1540 P   0  0  0  0  0  0  0  0  0  0  0  0
  -24.3890  -33.4680   44.0830 O   0  0  0  0  0  0  0  0  0  0  0  0
  -26.1350  -34.5710   42.6910 O   0  0  0  0  0  0  0  0  0  0  0  0
  -24.5010  -35.9170   43.9250 O   0  0  0  0  0  0  0  0  0  0  0  0
  1  2  2  0  0  0  0
  1  9  1  0  0  0  0
  2  3  1  0  0  0  0
  2  4  1  0  0  0  0
  4  5  1  0  0  0  0
  4  6  2  0  0  0  0
  6  7  1  0  0  0  0
  6  8  1  0  0  0  0
  8  9  2  0  0  0  0
  8 10  1  0  0  0  0
 10 11  1  0  0  0  0
 11 12  1  0  0  0  0
 12 14  2  0  0  0  0
 12 15  1  0  0  0  0
 12 13  1  0  0  0  0
M  END
>  <COMPND>
    UNNAMED

>  <AUTHOR>
    GENERATED BY OPEN BABEL 2.4.90

>  <MASTER>
        0    0    0    0    0    0    0    0   15    0   15    0

