__2jje_A_rec_2jje_plp_lig_docked.pdb
 OpenBabel10191914583D

 15 15  0  0  0  0  0  0  0  0999 V2000
  -21.7500  -33.6130   37.7980 N   0  0  0  0  0  0  0  0  0  0  0  0
  -22.7850  -33.4960   36.8730 C   0  0  0  0  0  0  0  0  0  0  0  0
  -22.4640  -33.3330   35.4090 C   0  0  0  0  0  0  0  0  0  0  0  0
  -24.1100  -33.5390   37.3180 C   0  0  0  0  0  0  0  0  0  0  0  0
  -25.1560  -33.5210   36.4210 O   0  0  0  0  0  0  0  0  0  0  0  0
  -24.3840  -33.7010   38.6880 C   0  0  0  0  0  0  0  0  0  0  0  0
  -25.7500  -33.2770   39.1810 C   0  0  0  0  0  0  0  0  0  0  0  0
  -23.3300  -33.8190   39.6070 C   0  0  0  0  0  0  0  0  0  0  0  0
  -22.0170  -33.7730   39.1450 C   0  0  0  0  0  0  0  0  0  0  0  0
  -23.5830  -33.7730   41.1040 C   0  0  0  0  0  0  0  0  0  0  0  0
  -24.0640  -35.0250   41.5670 O   0  0  0  0  0  0  0  0  0  0  0  0
  -24.9090  -35.1310   42.9380 P   0  0  0  0  0  0  0  0  0  0  0  0
  -25.7820  -33.8950   43.0030 O   0  0  0  0  0  0  0  0  0  0  0  0
  -25.8320  -36.3440   42.8840 O   0  0  0  0  0  0  0  0  0  0  0  0
  -23.9660  -35.1800   44.1120 O   0  0  0  0  0  0  0  0  0  0  0  0
  1  2  2  0  0  0  0
  1  9  1  0  0  0  0
  2  3  1  0  0  0  0
  2  4  1  0  0  0  0
  4  5  1  0  0  0  0
  4  6  2  0  0  0  0
  6  7  1  0  0  0  0
  6  8  1  0  0  0  0
  8  9  2  0  0  0  0
  8 10  1  0  0  0  0
 10 11  1  0  0  0  0
 11 12  1  0  0  0  0
 12 14  2  0  0  0  0
 12 15  1  0  0  0  0
 12 13  1  0  0  0  0
M  END
>  <MODEL>
       3

>  <COMPND>
    UNNAMED

>  <AUTHOR>
    GENERATED BY OPEN BABEL 2.4.90

>  <MASTER>
        0    0    0    0    0    0    0    0   15    0   15    0

