__2jjh_A_rec_2jjh_plp_lig_min.pdb
 OpenBabel10191914583D

 15 15  0  0  0  0  0  0  0  0999 V2000
  -21.7910  -33.6230   37.5900 N   0  0  0  0  0  0  0  0  0  0  0  0
  -22.8540  -33.5300   36.7140 C   0  0  0  0  0  0  0  0  0  0  0  0
  -22.5980  -33.3590   35.2450 C   0  0  0  0  0  0  0  0  0  0  0  0
  -24.1610  -33.6010   37.1990 C   0  0  0  0  0  0  0  0  0  0  0  0
  -25.2000  -33.3510   36.3380 O   0  0  0  0  0  0  0  0  0  0  0  0
  -24.4030  -33.7690   38.5730 C   0  0  0  0  0  0  0  0  0  0  0  0
  -25.7560  -33.4120   39.1390 C   0  0  0  0  0  0  0  0  0  0  0  0
  -23.3220  -33.8570   39.4650 C   0  0  0  0  0  0  0  0  0  0  0  0
  -22.0160  -33.7810   38.9530 C   0  0  0  0  0  0  0  0  0  0  0  0
  -23.5610  -33.6180   40.9460 C   0  0  0  0  0  0  0  0  0  0  0  0
  -23.8740  -34.8500   41.5560 O   0  0  0  0  0  0  0  0  0  0  0  0
  -24.8150  -34.9810   42.8700 P   0  0  0  0  0  0  0  0  0  0  0  0
  -24.0620  -34.4290   44.0730 O   0  0  0  0  0  0  0  0  0  0  0  0
  -26.0950  -34.1880   42.6620 O   0  0  0  0  0  0  0  0  0  0  0  0
  -25.1780  -36.4400   43.1100 O   0  0  0  0  0  0  0  0  0  0  0  0
  1  2  2  0  0  0  0
  1  9  1  0  0  0  0
  2  3  1  0  0  0  0
  2  4  1  0  0  0  0
  4  5  1  0  0  0  0
  4  6  2  0  0  0  0
  6  7  1  0  0  0  0
  6  8  1  0  0  0  0
  8  9  2  0  0  0  0
  8 10  1  0  0  0  0
 10 11  1  0  0  0  0
 11 12  1  0  0  0  0
 12 14  2  0  0  0  0
 12 15  1  0  0  0  0
 12 13  1  0  0  0  0
M  END
>  <COMPND>
    UNNAMED

>  <AUTHOR>
    GENERATED BY OPEN BABEL 2.4.90

>  <MASTER>
        0    0    0    0    0    0    0    0   15    0   15    0

