__4iwo_A_rec_4iwo_1h4_lig_min.pdb
 OpenBabel10191917093D

 33 37  0  0  0  0  0  0  0  0999 V2000
   -2.9370  -30.5470  -15.9830 C   0  0  0  0  0  0  0  0  0  0  0  0
   -3.2620  -29.8600  -13.9460 C   0  0  0  0  0  0  0  0  0  0  0  0
   -1.6470  -30.6440  -16.1200 C   0  0  0  0  0  0  0  0  0  0  0  0
   -0.9010  -30.2550  -14.8830 C   0  0  0  0  0  0  0  0  0  0  0  0
   -1.7910  -29.8180  -13.6740 N   0  0  0  0  0  4  0  0  0  0  0  0
   -3.5650  -30.2170  -15.0610 N   0  0  0  0  0  0  0  0  0  0  0  0
   -0.5010  -29.9890  -18.2080 C   0  0  0  0  0  0  0  0  0  0  0  0
   -0.9190  -31.1080  -17.4240 C   0  0  0  0  0  0  0  0  0  0  0  0
   -1.7090  -30.8110  -18.5790 C   0  0  0  0  0  0  0  0  0  0  0  0
    0.5420  -30.2690  -14.7680 N   0  0  0  0  0  0  0  0  0  0  0  0
    1.1200  -30.6350  -13.5020 C   0  0  0  0  0  0  0  0  0  0  0  0
    1.1580  -32.1510  -13.4190 C   0  0  0  0  0  0  0  0  0  0  0  0
    1.9250  -32.6730  -14.6520 C   0  0  0  0  0  0  0  0  0  0  0  0
    3.8190  -31.8720  -15.9840 C   0  0  0  0  0  0  0  0  0  0  0  0
    3.5250  -32.0160  -17.3400 O   0  0  0  0  0  0  0  0  0  0  0  0
    3.1990  -31.9580  -14.7660 N   0  0  0  0  0  0  0  0  0  0  0  0
    5.3950  -30.4470  -14.8710 C   0  0  0  0  0  0  0  0  0  0  0  0
    5.7360  -29.5520  -16.0830 C   0  0  0  0  0  0  0  0  0  0  0  0
    5.7600  -30.8130  -16.9310 C   0  0  0  0  0  0  0  0  0  0  0  0
    5.2460  -31.5190  -15.7840 C   0  0  0  0  0  0  0  0  0  0  0  0
   -4.2610  -29.4870  -12.9780 N   0  0  0  0  0  0  0  0  0  0  0  0
   -4.0160  -29.4110  -11.5400 C   0  0  0  0  0  0  0  0  0  0  0  0
   -5.2160  -29.1190  -10.4950 C   0  0  0  0  0  0  0  0  0  0  0  0
   -4.8030  -29.0680   -9.0670 C   0  0  0  0  0  0  0  0  0  0  0  0
   -3.5720  -29.2590   -8.8820 C   0  0  0  0  0  0  0  0  0  0  0  0
   -2.6610  -29.4720   -9.6020 C   0  0  0  0  0  0  0  0  0  0  0  0
   -2.6610  -29.5820  -10.8920 C   0  0  0  0  0  0  0  0  0  0  0  0
   -5.7300  -28.8200   -7.9950 N   0  0  0  0  0  0  0  0  0  0  0  0
   -6.2240  -29.8210   -7.0540 C   0  0  0  0  0  0  0  0  0  0  0  0
   -7.0730  -29.0800   -6.0280 C   0  0  0  0  0  0  0  0  0  0  0  0
   -7.2150  -27.6740   -6.4990 C   0  0  0  0  0  0  0  0  0  0  0  0
   -6.3170  -27.5210   -7.6710 C   0  0  0  0  0  0  0  0  0  0  0  0
   -6.1100  -26.4740   -8.2670 O   0  0  0  0  0  0  0  0  0  0  0  0
  1  3  2  0  0  0  0
  1  6  1  0  0  0  0
  2  6  2  0  0  0  0
  2  5  2  0  0  0  0
  2 21  1  0  0  0  0
  3  8  1  0  0  0  0
  3  4  1  0  0  0  0
  4 10  1  0  0  0  0
  4  5  2  0  0  0  0
  7  9  1  0  0  0  0
  7  8  1  0  0  0  0
  8  9  1  0  0  0  0
 10 11  1  0  0  0  0
 11 12  1  0  0  0  0
 12 13  1  0  0  0  0
 13 16  1  0  0  0  0
 14 15  2  0  0  0  0
 14 20  1  0  0  0  0
 14 16  1  0  0  0  0
 17 20  1  0  0  0  0
 17 18  1  0  0  0  0
 18 19  1  0  0  0  0
 19 20  1  0  0  0  0
 21 22  1  0  0  0  0
 22 27  2  0  0  0  0
 22 23  1  0  0  0  0
 23 24  2  0  0  0  0
 24 25  1  0  0  0  0
 24 28  1  0  0  0  0
 25 26  2  0  0  0  0
 26 27  1  0  0  0  0
 28 32  1  0  0  0  0
 28 29  1  0  0  0  0
 29 30  2  0  0  0  0
 30 31  1  0  0  0  0
 31 32  1  0  0  0  0
 32 33  2  0  0  0  0
M  END
>  <COMPND>
    UNNAMED

>  <AUTHOR>
    GENERATED BY OPEN BABEL 2.4.90

>  <MASTER>
        0    0    0    0    0    0    0    0   33    0   33    0

