__4iwq_A_rec_4iwo_1h4_lig_min.pdb
 OpenBabel10191917093D

 33 37  0  0  0  0  0  0  0  0999 V2000
   -3.0410  -30.6940  -15.8790 C   0  0  0  0  0  0  0  0  0  0  0  0
   -3.2430  -29.7970  -13.9080 C   0  0  0  0  0  0  0  0  0  0  0  0
   -1.7720  -30.9290  -16.0300 C   0  0  0  0  0  0  0  0  0  0  0  0
   -0.9580  -30.5070  -14.8470 C   0  0  0  0  0  0  0  0  0  0  0  0
   -1.7690  -29.8760  -13.6680 N   0  0  0  0  0  4  0  0  0  0  0  0
   -3.6090  -30.2210  -14.9810 N   0  0  0  0  0  0  0  0  0  0  0  0
   -0.4130  -30.6100  -18.0680 C   0  0  0  0  0  0  0  0  0  0  0  0
   -1.1270  -31.5790  -17.2980 C   0  0  0  0  0  0  0  0  0  0  0  0
   -1.7700  -31.1150  -18.4880 C   0  0  0  0  0  0  0  0  0  0  0  0
    0.4800  -30.6530  -14.7570 N   0  0  0  0  0  0  0  0  0  0  0  0
    1.0860  -30.6300  -13.4520 C   0  0  0  0  0  0  0  0  0  0  0  0
    1.2200  -32.0620  -12.9660 C   0  0  0  0  0  0  0  0  0  0  0  0
    2.0560  -32.8370  -14.0050 C   0  0  0  0  0  0  0  0  0  0  0  0
    3.8170  -32.0960  -15.5380 C   0  0  0  0  0  0  0  0  0  0  0  0
    3.4230  -32.3490  -16.8520 O   0  0  0  0  0  0  0  0  0  0  0  0
    3.2960  -32.1040  -14.2720 N   0  0  0  0  0  0  0  0  0  0  0  0
    5.4270  -30.5360  -14.6850 C   0  0  0  0  0  0  0  0  0  0  0  0
    5.6550  -29.7550  -15.9980 C   0  0  0  0  0  0  0  0  0  0  0  0
    5.6550  -31.0920  -16.7210 C   0  0  0  0  0  0  0  0  0  0  0  0
    5.2440  -31.6940  -15.4780 C   0  0  0  0  0  0  0  0  0  0  0  0
   -4.1750  -29.2400  -12.9610 N   0  0  0  0  0  0  0  0  0  0  0  0
   -3.9610  -29.2300  -11.5160 C   0  0  0  0  0  0  0  0  0  0  0  0
   -5.1610  -28.8730  -10.4900 C   0  0  0  0  0  0  0  0  0  0  0  0
   -4.7810  -28.9020   -9.0520 C   0  0  0  0  0  0  0  0  0  0  0  0
   -3.5750  -29.1990   -8.8460 C   0  0  0  0  0  0  0  0  0  0  0  0
   -2.6660  -29.4640   -9.5510 C   0  0  0  0  0  0  0  0  0  0  0  0
   -2.6420  -29.5320  -10.8430 C   0  0  0  0  0  0  0  0  0  0  0  0
   -5.7120  -28.6120   -7.9950 N   0  0  0  0  0  0  0  0  0  0  0  0
   -6.3000  -29.5960   -7.0900 C   0  0  0  0  0  0  0  0  0  0  0  0
   -7.1160  -28.8200   -6.0640 C   0  0  0  0  0  0  0  0  0  0  0  0
   -7.1440  -27.3960   -6.5010 C   0  0  0  0  0  0  0  0  0  0  0  0
   -6.2100  -27.2820   -7.6490 C   0  0  0  0  0  0  0  0  0  0  0  0
   -5.9130  -26.2380   -8.2140 O   0  0  0  0  0  0  0  0  0  0  0  0
  1  3  2  0  0  0  0
  1  6  1  0  0  0  0
  2  6  2  0  0  0  0
  2  5  2  0  0  0  0
  2 21  1  0  0  0  0
  3  8  1  0  0  0  0
  3  4  1  0  0  0  0
  4 10  1  0  0  0  0
  4  5  2  0  0  0  0
  7  9  1  0  0  0  0
  7  8  1  0  0  0  0
  8  9  1  0  0  0  0
 10 11  1  0  0  0  0
 11 12  1  0  0  0  0
 12 13  1  0  0  0  0
 13 16  1  0  0  0  0
 14 15  2  0  0  0  0
 14 20  1  0  0  0  0
 14 16  1  0  0  0  0
 17 20  1  0  0  0  0
 17 18  1  0  0  0  0
 18 19  1  0  0  0  0
 19 20  1  0  0  0  0
 21 22  1  0  0  0  0
 22 27  2  0  0  0  0
 22 23  1  0  0  0  0
 23 24  2  0  0  0  0
 24 25  1  0  0  0  0
 24 28  1  0  0  0  0
 25 26  2  0  0  0  0
 26 27  1  0  0  0  0
 28 32  1  0  0  0  0
 28 29  1  0  0  0  0
 29 30  2  0  0  0  0
 30 31  1  0  0  0  0
 31 32  1  0  0  0  0
 32 33  2  0  0  0  0
M  END
>  <COMPND>
    UNNAMED

>  <AUTHOR>
    GENERATED BY OPEN BABEL 2.4.90

>  <MASTER>
        0    0    0    0    0    0    0    0   33    0   33    0

