__4jlc_A_rec_4iwo_1h4_lig_min.pdb
 OpenBabel10191917093D

 33 37  0  0  0  0  0  0  0  0999 V2000
   -3.3320  -31.0660  -16.0430 C   0  0  0  0  0  0  0  0  0  0  0  0
   -3.4340  -29.9500  -14.1800 C   0  0  0  0  0  0  0  0  0  0  0  0
   -2.0770  -31.3610  -16.2080 C   0  0  0  0  0  0  0  0  0  0  0  0
   -1.2080  -30.8400  -15.1070 C   0  0  0  0  0  0  0  0  0  0  0  0
   -1.9550  -30.0540  -13.9800 N   0  0  0  0  0  4  0  0  0  0  0  0
   -3.8520  -30.4760  -15.1850 N   0  0  0  0  0  0  0  0  0  0  0  0
   -0.7090  -31.3350  -18.2650 C   0  0  0  0  0  0  0  0  0  0  0  0
   -1.4980  -32.1700  -17.4150 C   0  0  0  0  0  0  0  0  0  0  0  0
   -2.1080  -31.7540  -18.6410 C   0  0  0  0  0  0  0  0  0  0  0  0
    0.2270  -31.0260  -15.0470 N   0  0  0  0  0  0  0  0  0  0  0  0
    0.8810  -30.8660  -13.7760 C   0  0  0  0  0  0  0  0  0  0  0  0
    1.1520  -32.2470  -13.2040 C   0  0  0  0  0  0  0  0  0  0  0  0
    1.6700  -33.1390  -14.3520 C   0  0  0  0  0  0  0  0  0  0  0  0
    3.2610  -32.6030  -16.1360 C   0  0  0  0  0  0  0  0  0  0  0  0
    2.6020  -32.6300  -17.3660 O   0  0  0  0  0  0  0  0  0  0  0  0
    2.9740  -32.6430  -14.7980 N   0  0  0  0  0  0  0  0  0  0  0  0
    5.3120  -31.6090  -15.3910 C   0  0  0  0  0  0  0  0  0  0  0  0
    5.4790  -30.6110  -16.5580 C   0  0  0  0  0  0  0  0  0  0  0  0
    5.0420  -31.7260  -17.4940 C   0  0  0  0  0  0  0  0  0  0  0  0
    4.7290  -32.5030  -16.3210 C   0  0  0  0  0  0  0  0  0  0  0  0
   -4.3140  -29.2600  -13.2710 N   0  0  0  0  0  0  0  0  0  0  0  0
   -4.0630  -29.1240  -11.8380 C   0  0  0  0  0  0  0  0  0  0  0  0
   -5.1800  -28.5070  -10.8430 C   0  0  0  0  0  0  0  0  0  0  0  0
   -4.7710  -28.4330   -9.4150 C   0  0  0  0  0  0  0  0  0  0  0  0
   -3.6080  -28.8630   -9.1910 C   0  0  0  0  0  0  0  0  0  0  0  0
   -2.7600  -29.3170   -9.8740 C   0  0  0  0  0  0  0  0  0  0  0  0
   -2.7780  -29.5250  -11.1510 C   0  0  0  0  0  0  0  0  0  0  0  0
   -5.6290  -27.9130   -8.3840 N   0  0  0  0  0  0  0  0  0  0  0  0
   -6.1850  -28.6840   -7.2770 C   0  0  0  0  0  0  0  0  0  0  0  0
   -6.9190  -27.6970   -6.3760 C   0  0  0  0  0  0  0  0  0  0  0  0
   -6.9370  -26.3830   -7.0780 C   0  0  0  0  0  0  0  0  0  0  0  0
   -6.0720  -26.5240   -8.2760 C   0  0  0  0  0  0  0  0  0  0  0  0
   -5.7830  -25.6190   -9.0460 O   0  0  0  0  0  0  0  0  0  0  0  0
  1  3  2  0  0  0  0
  1  6  1  0  0  0  0
  2  6  2  0  0  0  0
  2  5  2  0  0  0  0
  2 21  1  0  0  0  0
  3  8  1  0  0  0  0
  3  4  1  0  0  0  0
  4 10  1  0  0  0  0
  4  5  2  0  0  0  0
  7  9  1  0  0  0  0
  7  8  1  0  0  0  0
  8  9  1  0  0  0  0
 10 11  1  0  0  0  0
 11 12  1  0  0  0  0
 12 13  1  0  0  0  0
 13 16  1  0  0  0  0
 14 15  2  0  0  0  0
 14 20  1  0  0  0  0
 14 16  1  0  0  0  0
 17 20  1  0  0  0  0
 17 18  1  0  0  0  0
 18 19  1  0  0  0  0
 19 20  1  0  0  0  0
 21 22  1  0  0  0  0
 22 27  2  0  0  0  0
 22 23  1  0  0  0  0
 23 24  2  0  0  0  0
 24 25  1  0  0  0  0
 24 28  1  0  0  0  0
 25 26  2  0  0  0  0
 26 27  1  0  0  0  0
 28 32  1  0  0  0  0
 28 29  1  0  0  0  0
 29 30  2  0  0  0  0
 30 31  1  0  0  0  0
 31 32  1  0  0  0  0
 32 33  2  0  0  0  0
M  END
>  <COMPND>
    UNNAMED

>  <AUTHOR>
    GENERATED BY OPEN BABEL 2.4.90

>  <MASTER>
        0    0    0    0    0    0    0    0   33    0   33    0

