__1q23_C_rec_1q23_fua_lig_docked.pdb
 OpenBabel10181900523D

 37 40  0  0  1  0  0  0  0  0999 V2000
  -14.4780  -28.7490   -1.0390 C   0  0  0  0  0  0  0  0  0  0  0  0
  -15.9150  -29.1400   -0.6340 C   0  0  0  0  0  0  0  0  0  0  0  0
  -16.7510  -28.2780    0.3430 C   0  0  2  0  0  0  0  0  0  0  0  0
  -16.2880  -26.9040    0.7320 C   0  0  2  0  0  0  0  0  0  0  0  0
  -14.8590  -26.5710    0.4380 C   0  0  2  0  0  0  0  0  0  0  0  0
  -14.5340  -25.2170    0.9240 C   0  0  0  0  0  0  0  0  0  0  0  0
  -13.2290  -24.6800    0.5970 C   0  0  0  0  0  0  0  0  0  0  0  0
  -12.3030  -25.5730   -0.1800 C   0  0  1  0  0  0  0  0  0  0  0  0
  -12.6970  -26.7940   -0.9600 C   0  0  2  0  0  0  0  0  0  0  0  0
  -14.1070  -27.3350   -0.6300 C   0  0  1  0  0  0  0  0  0  0  0  0
  -11.6820  -27.5890   -1.8310 C   0  0  1  0  0  0  0  0  0  0  0  0
  -10.3500  -26.8060   -2.0040 C   0  0  0  0  0  0  0  0  0  0  0  0
  -10.0230  -25.3580   -1.4150 C   0  0  1  0  0  0  0  0  0  0  0  0
  -11.0450  -24.8490   -0.4720 C   0  0  2  0  0  0  0  0  0  0  0  0
  -10.3070  -24.2490    0.7370 C   0  0  0  0  0  0  0  0  0  0  0  0
   -8.8120  -24.1320    0.4520 C   0  0  1  0  0  0  0  0  0  0  0  0
   -8.6930  -24.8280   -0.8880 C   0  0  0  0  0  0  0  0  0  0  0  0
  -17.1520  -25.9800    1.5940 C   0  0  0  0  0  0  0  0  0  0  0  0
  -14.9670  -26.6780   -1.8120 C   0  0  0  0  0  0  0  0  0  0  0  0
  -11.7400  -26.1920    1.1530 C   0  0  0  0  0  0  0  0  0  0  0  0
  -11.4500  -23.5580   -1.1880 C   0  0  0  0  0  0  0  0  0  0  0  0
   -7.5700  -24.9540   -1.5790 C   0  0  0  0  0  0  0  0  0  0  0  0
  -11.5450  -28.9120   -1.2770 O   0  0  0  0  0  0  0  0  0  0  0  0
  -16.3450  -28.7270    1.6090 O   0  0  0  0  0  0  0  0  0  0  0  0
   -6.3140  -24.3730   -1.0740 C   0  0  0  0  0  0  0  0  0  0  0  0
   -6.1090  -23.3500   -1.6870 O   0  0  0  0  0  0  0  0  0  0  0  0
   -5.3950  -24.6230   -0.2080 O   0  0  0  0  0  0  0  0  0  0  0  0
   -7.4780  -25.6340   -2.9470 C   0  0  0  0  0  0  0  0  0  0  0  0
   -5.9860  -25.9410   -3.2230 C   0  0  0  0  0  0  0  0  0  0  0  0
   -5.4390  -27.3110   -2.8340 C   0  0  0  0  0  0  0  0  0  0  0  0
   -4.2460  -27.6510   -2.2700 C   0  0  0  0  0  0  0  0  0  0  0  0
   -3.9910  -29.1190   -1.9910 C   0  0  0  0  0  0  0  0  0  0  0  0
   -3.1500  -26.7010   -1.9000 C   0  0  0  0  0  0  0  0  0  0  0  0
   -8.4140  -22.7430    0.4210 O   0  0  0  0  0  0  0  0  0  0  0  0
   -7.7440  -22.0500    1.5240 C   0  0  0  0  0  0  0  0  0  0  0  0
   -6.7620  -20.9640    1.2210 C   0  0  0  0  0  0  0  0  0  0  0  0
   -7.9980  -22.3640    2.6520 O   0  0  0  0  0  0  0  0  0  0  0  0
  1  2  1  0  0  0  0
  1 10  1  0  0  0  0
  2  3  1  0  0  0  0
  3  4  1  0  0  0  0
  3 24  1  1  0  0  0
  4  5  1  0  0  0  0
  4 18  1  1  0  0  0
  5 10  1  0  0  0  0
  5  6  1  6  0  0  0
  6  7  2  0  0  0  0
  7  8  1  0  0  0  0
  8  9  1  0  0  0  0
  8 14  1  0  0  0  0
  8 20  1  1  0  0  0
  9 11  1  0  0  0  0
  9 10  1  0  0  0  0
 10 19  1  0  0  0  0
 11 12  1  0  0  0  0
 11 23  1  0  0  0  0
 12 13  1  0  0  0  0
 13 17  1  0  0  0  0
 13 14  1  0  0  0  0
 14 21  1  0  0  0  0
 14 15  1  0  0  0  0
 15 16  1  0  0  0  0
 16 17  1  0  0  0  0
 16 34  1  0  0  0  0
 17 22  2  0  0  0  0
 22 28  1  0  0  0  0
 22 25  1  0  0  0  0
 25 26  2  0  0  0  0
 25 27  1  0  0  0  0
 28 29  1  0  0  0  0
 29 30  1  0  0  0  0
 30 31  2  0  0  0  0
 31 32  1  0  0  0  0
 31 33  1  0  0  0  0
 34 35  1  0  0  0  0
 35 36  1  0  0  0  0
 35 37  2  0  0  0  0
M  END
>  <MODEL>
       1

>  <COMPND>
    UNNAMED

>  <AUTHOR>
    GENERATED BY OPEN BABEL 2.4.90

>  <MASTER>
        0    0    0    0    0    0    0    0   37    0   37    0

