__5gtd_A_rec_5x8f_amp_lig_docked.pdb
 OpenBabel10191918393D

 23 25  0  0  1  0  0  0  0  0999 V2000
  102.7930    4.9850  -91.5750 C   0  0  1  0  0  0  0  0  0  0  0  0
  102.7910    6.1510  -90.7180 O   0  0  0  0  0  0  0  0  0  0  0  0
  101.7200    5.3030  -92.6050 C   0  0  1  0  0  0  0  0  0  0  0  0
  101.2200    4.1510  -93.2630 O   0  0  0  0  0  0  0  0  0  0  0  0
  100.6620    6.0490  -91.7950 C   0  0  1  0  0  0  0  0  0  0  0  0
   99.7630    5.1380  -91.1790 O   0  0  0  0  0  0  0  0  0  0  0  0
  101.5020    6.7240  -90.7010 C   0  0  2  0  0  0  0  0  0  0  0  0
  101.6120    8.1830  -90.9050 N   0  0  0  0  0  0  0  0  0  0  0  0
  102.6480    8.8560  -91.4530 C   0  0  0  0  0  0  0  0  0  0  0  0
  102.3990   10.1970  -91.4680 N   0  0  0  0  0  0  0  0  0  0  0  0
  101.1700   10.4000  -90.9280 C   0  0  0  0  0  0  0  0  0  0  0  0
  100.2770   11.5580  -90.6400 C   0  0  0  0  0  0  0  0  0  0  0  0
  100.6140   12.8440  -90.9260 N   0  0  0  0  0  0  0  0  0  0  0  0
   99.0830   11.3000  -90.0690 N   0  0  0  0  0  0  0  0  0  0  0  0
   98.6960   10.0510  -89.7640 C   0  0  0  0  0  0  0  0  0  0  0  0
   99.4440    8.9610  -89.9900 N   0  0  0  0  0  0  0  0  0  0  0  0
  100.6680    9.0650  -90.5620 C   0  0  0  0  0  0  0  0  0  0  0  0
  104.1760    4.7690  -92.1410 C   0  0  0  0  0  0  0  0  0  0  0  0
  104.3370    3.4950  -92.7540 O   0  0  0  0  0  0  0  0  0  0  0  0
  105.7620    2.7560  -92.7740 P   0  0  0  0  0  0  0  0  0  0  0  0
  105.7730    1.7880  -91.5820 O   0  0  0  0  0  0  0  0  0  0  0  0
  105.8200    2.1160  -94.1230 O   0  0  0  0  0  0  0  0  0  0  0  0
  106.7460    3.8990  -92.6310 O   0  0  0  0  0  0  0  0  0  0  0  0
  1  3  1  0  0  0  0
  1 18  1  6  0  0  0
  1  2  1  0  0  0  0
  2  7  1  0  0  0  0
  3  4  1  1  0  0  0
  3  5  1  0  0  0  0
  5  6  1  1  0  0  0
  5  7  1  0  0  0  0
  7  8  1  6  0  0  0
  8  9  1  0  0  0  0
  8 17  1  0  0  0  0
  9 10  2  0  0  0  0
 10 11  1  0  0  0  0
 11 12  2  0  0  0  0
 11 17  1  0  0  0  0
 12 13  1  0  0  0  0
 12 14  1  0  0  0  0
 14 15  2  0  0  0  0
 15 16  1  0  0  0  0
 16 17  2  0  0  0  0
 18 19  1  0  0  0  0
 19 20  1  0  0  0  0
 20 21  2  0  0  0  0
 20 22  1  0  0  0  0
 20 23  1  0  0  0  0
M  END
>  <MODEL>
       1

>  <COMPND>
    UNNAMED

>  <AUTHOR>
    GENERATED BY OPEN BABEL 2.4.90

>  <MASTER>
        0    0    0    0    0    0    0    0   23    0   23    0

