__5gtd_A_rec_5x8f_amp_lig_docked.pdb
 OpenBabel10191918393D

 23 25  0  0  1  0  0  0  0  0999 V2000
  102.6230    4.7620  -91.4660 C   0  0  1  0  0  0  0  0  0  0  0  0
  102.7060    5.9540  -90.6510 O   0  0  0  0  0  0  0  0  0  0  0  0
  101.4990    5.0770  -92.4420 C   0  0  1  0  0  0  0  0  0  0  0  0
  100.9290    3.9210  -93.0290 O   0  0  0  0  0  0  0  0  0  0  0  0
  100.5140    5.8810  -91.5960 C   0  0  1  0  0  0  0  0  0  0  0  0
   99.6280    5.0180  -90.8970 O   0  0  0  0  0  0  0  0  0  0  0  0
  101.4360    6.5660  -90.5770 C   0  0  2  0  0  0  0  0  0  0  0  0
  101.5750    8.0140  -90.8370 N   0  0  0  0  0  0  0  0  0  0  0  0
  102.6170    8.6430  -91.4240 C   0  0  0  0  0  0  0  0  0  0  0  0
  102.3970    9.9880  -91.4860 N   0  0  0  0  0  0  0  0  0  0  0  0
  101.1800   10.2370  -90.9370 C   0  0  0  0  0  0  0  0  0  0  0  0
  100.3170   11.4250  -90.6810 C   0  0  0  0  0  0  0  0  0  0  0  0
  100.6770   12.6910  -91.0190 N   0  0  0  0  0  0  0  0  0  0  0  0
   99.1260   11.2140  -90.0850 N   0  0  0  0  0  0  0  0  0  0  0  0
   98.7160    9.9860  -89.7280 C   0  0  0  0  0  0  0  0  0  0  0  0
   99.4370    8.8730  -89.9230 N   0  0  0  0  0  0  0  0  0  0  0  0
  100.6540    8.9280  -90.5150 C   0  0  0  0  0  0  0  0  0  0  0  0
  103.9630    4.4850  -92.1050 C   0  0  0  0  0  0  0  0  0  0  0  0
  105.0350    4.4540  -91.1700 O   0  0  0  0  0  0  0  0  0  0  0  0
  106.5510    4.2360  -91.6500 P   0  0  0  0  0  0  0  0  0  0  0  0
  106.4840    3.5010  -92.9970 O   0  0  0  0  0  0  0  0  0  0  0  0
  107.1170    5.6170  -91.7000 O   0  0  0  0  0  0  0  0  0  0  0  0
  107.1500    3.4010  -90.5380 O   0  0  0  0  0  0  0  0  0  0  0  0
  1  3  1  0  0  0  0
  1 18  1  6  0  0  0
  1  2  1  0  0  0  0
  2  7  1  0  0  0  0
  3  4  1  1  0  0  0
  3  5  1  0  0  0  0
  5  6  1  1  0  0  0
  5  7  1  0  0  0  0
  7  8  1  6  0  0  0
  8  9  1  0  0  0  0
  8 17  1  0  0  0  0
  9 10  2  0  0  0  0
 10 11  1  0  0  0  0
 11 12  2  0  0  0  0
 11 17  1  0  0  0  0
 12 13  1  0  0  0  0
 12 14  1  0  0  0  0
 14 15  2  0  0  0  0
 15 16  1  0  0  0  0
 16 17  2  0  0  0  0
 18 19  1  0  0  0  0
 19 20  1  0  0  0  0
 20 21  2  0  0  0  0
 20 22  1  0  0  0  0
 20 23  1  0  0  0  0
M  END
>  <MODEL>
       2

>  <COMPND>
    UNNAMED

>  <AUTHOR>
    GENERATED BY OPEN BABEL 2.4.90

>  <MASTER>
        0    0    0    0    0    0    0    0   23    0   23    0

