__5gtd_A_rec_5bus_amp_lig_docked.pdb
 OpenBabel10191918383D

 23 25  0  0  1  0  0  0  0  0999 V2000
  102.7600    4.6940  -91.4360 C   0  0  1  0  0  0  0  0  0  0  0  0
  102.6750    5.7100  -90.4660 O   0  0  0  0  0  0  0  0  0  0  0  0
  101.7220    5.1210  -92.4410 C   0  0  1  0  0  0  0  0  0  0  0  0
  101.1260    4.0310  -93.0760 O   0  0  0  0  0  0  0  0  0  0  0  0
  100.6540    5.7430  -91.6140 C   0  0  1  0  0  0  0  0  0  0  0  0
   99.7930    4.7250  -91.1970 O   0  0  0  0  0  0  0  0  0  0  0  0
  101.3950    6.2960  -90.4480 C   0  0  2  0  0  0  0  0  0  0  0  0
  101.5370    7.7210  -90.7330 N   0  0  0  0  0  0  0  0  0  0  0  0
  102.5590    8.2980  -91.3230 C   0  0  0  0  0  0  0  0  0  0  0  0
  102.3950    9.6100  -91.4550 N   0  0  0  0  0  0  0  0  0  0  0  0
  101.2200    9.9090  -90.9440 C   0  0  0  0  0  0  0  0  0  0  0  0
  100.4050   11.1080  -90.7440 C   0  0  0  0  0  0  0  0  0  0  0  0
  100.7860   12.3220  -91.1150 N   0  0  0  0  0  0  0  0  0  0  0  0
   99.2380   10.9730  -90.1580 N   0  0  0  0  0  0  0  0  0  0  0  0
   98.7930    9.7960  -89.7590 C   0  0  0  0  0  0  0  0  0  0  0  0
   99.4680    8.6740  -89.8990 N   0  0  0  0  0  0  0  0  0  0  0  0
  100.6640    8.6620  -90.4740 C   0  0  0  0  0  0  0  0  0  0  0  0
  104.1730    4.6370  -91.9790 C   0  0  0  0  0  0  0  0  0  0  0  0
  104.3400    3.4620  -92.7430 O   0  0  0  0  0  0  0  0  0  0  0  0
  105.6800    2.6730  -92.8530 P   0  0  0  0  0  0  0  0  0  0  0  0
  106.7060    3.6860  -92.7040 O   0  0  0  0  0  0  0  0  0  0  0  0
  105.6430    1.6960  -91.7930 O   0  0  0  0  0  0  0  0  0  0  0  0
  105.5600    2.1060  -94.1860 O   0  0  0  0  0  0  0  0  0  0  0  0
  1  3  1  0  0  0  0
  1 18  1  6  0  0  0
  1  2  1  0  0  0  0
  2  7  1  0  0  0  0
  3  4  1  1  0  0  0
  3  5  1  0  0  0  0
  5  6  1  1  0  0  0
  5  7  1  0  0  0  0
  7  8  1  6  0  0  0
  8  9  1  0  0  0  0
  8 17  1  0  0  0  0
  9 10  2  0  0  0  0
 10 11  1  0  0  0  0
 11 17  2  0  0  0  0
 11 12  1  0  0  0  0
 12 13  1  0  0  0  0
 12 14  2  0  0  0  0
 14 15  1  0  0  0  0
 15 16  2  0  0  0  0
 16 17  1  0  0  0  0
 18 19  1  0  0  0  0
 19 20  1  0  0  0  0
 20 21  2  0  0  0  0
 20 22  1  0  0  0  0
 20 23  1  0  0  0  0
M  END
>  <MODEL>
       1

>  <COMPND>
    UNNAMED

>  <AUTHOR>
    GENERATED BY OPEN BABEL 2.4.90

>  <MASTER>
        0    0    0    0    0    0    0    0   23    0   23    0

