__4bn4_A_rec_4bvh_oad_lig_min.pdb
 OpenBabel10201913153D

 39 42  0  0  1  0  0  0  0  0999 V2000
   16.9980   28.3800  -14.7950 P   0  0  1  0  0  0  0  0  0  0  0  0
   17.0570   28.6840  -16.3170 O   0  0  0  0  0  0  0  0  0  0  0  0
   16.7810   29.4920  -13.8040 O   0  0  0  0  0  0  0  0  0  0  0  0
   16.0090   27.1010  -14.5840 O   0  0  0  0  0  0  0  0  0  0  0  0
   15.0970   27.1410  -13.4310 C   0  0  0  0  0  0  0  0  0  0  0  0
   13.9650   26.1110  -13.7220 C   0  0  1  0  0  0  0  0  0  0  0  0
   13.2280   25.8920  -12.5120 O   0  0  0  0  0  0  0  0  0  0  0  0
   13.0030   26.7920  -14.6820 C   0  0  1  0  0  0  0  0  0  0  0  0
   12.5760   25.8910  -15.6140 O   0  0  0  0  0  0  0  0  0  0  0  0
   11.9020   27.3090  -13.7480 C   0  0  1  0  0  0  0  0  0  0  0  0
   10.5930   27.2910  -14.4370 O   0  0  0  0  0  0  0  0  0  0  0  0
   11.8610   26.1730  -12.6730 C   0  0  2  0  0  0  0  0  0  0  0  0
   11.4300   26.5790  -11.3610 N   0  0  0  0  0  0  0  0  0  0  0  0
   11.7080   27.7120  -10.6670 C   0  0  0  0  0  0  0  0  0  0  0  0
   11.1080   27.6310   -9.5260 N   0  0  0  0  0  0  0  0  0  0  0  0
   10.4920   26.4560   -9.3970 C   0  0  0  0  0  0  0  0  0  0  0  0
    9.7710   25.8820   -8.4060 C   0  0  0  0  0  0  0  0  0  0  0  0
    9.5820   26.5270   -7.2520 N   0  0  0  0  0  0  0  0  0  0  0  0
    9.2410   24.6290   -8.5520 N   0  0  0  0  0  0  0  0  0  0  0  0
    9.4180   23.9560   -9.7250 C   0  0  0  0  0  0  0  0  0  0  0  0
   10.1740   24.5450  -10.7200 N   0  0  0  0  0  0  0  0  0  0  0  0
   10.7090   25.7900  -10.5230 C   0  0  0  0  0  0  0  0  0  0  0  0
   18.4430   27.7360  -14.3380 O   0  0  0  0  0  0  0  0  0  0  0  0
   19.3260   26.6690  -15.0720 P   0  0  2  0  0  0  0  0  0  0  0  0
   18.6300   25.9140  -16.1680 O   0  0  0  0  0  0  0  0  0  0  0  0
   20.1740   25.9590  -14.0920 O   0  0  0  0  0  0  0  0  0  0  0  0
   20.2620   27.7410  -15.8900 O   0  0  0  0  0  0  0  0  0  0  0  0
   21.5070   27.2090  -16.3180 C   0  0  0  0  0  0  0  0  0  0  0  0
   22.5730   28.2620  -16.1680 C   0  0  1  0  0  0  0  0  0  0  0  0
   22.1030   29.4530  -16.8480 O   0  0  0  0  0  0  0  0  0  0  0  0
   22.7650   28.7430  -14.7130 C   0  0  1  0  0  0  0  0  0  0  0  0
   23.4700   27.7790  -13.8360 O   0  0  0  0  0  0  0  0  0  0  0  0
   23.5500   30.0700  -14.9730 C   0  0  2  0  0  0  0  0  0  0  0  0
   22.7840   30.5870  -16.2380 C   0  0  1  0  0  0  0  0  0  0  0  0
   23.6670   31.0330  -17.2930 O   0  0  0  0  0  0  0  0  0  0  0  0
   24.9240   29.7410  -15.1920 O   0  0  0  0  0  0  0  0  0  0  0  0
   26.0080   30.4110  -14.6720 C   0  0  0  0  0  0  0  0  0  0  0  0
   26.8680   30.9350  -15.3930 O   0  0  0  0  0  0  0  0  0  0  0  0
   26.1540   30.4220  -13.1430 C   0  0  0  0  0  0  0  0  0  0  0  0
  1  2  2  6  0  0  0
  1  4  1  0  0  0  0
  1  3  1  0  0  0  0
  1 23  1  0  0  0  0
  4  5  1  0  0  0  0
  6  5  1  1  0  0  0
  6  8  1  0  0  0  0
  6  7  1  0  0  0  0
  7 12  1  0  0  0  0
  8  9  1  6  0  0  0
  8 10  1  0  0  0  0
 10 11  1  6  0  0  0
 10 12  1  0  0  0  0
 12 13  1  1  0  0  0
 13 14  1  0  0  0  0
 13 22  1  0  0  0  0
 14 15  2  0  0  0  0
 15 16  1  0  0  0  0
 16 22  2  0  0  0  0
 16 17  1  0  0  0  0
 17 19  2  0  0  0  0
 17 18  1  0  0  0  0
 19 20  1  0  0  0  0
 20 21  2  0  0  0  0
 21 22  1  0  0  0  0
 23 24  1  0  0  0  0
 24 27  1  0  0  0  0
 24 25  2  6  0  0  0
 24 26  1  0  0  0  0
 27 28  1  0  0  0  0
 29 28  1  1  0  0  0
 29 30  1  0  0  0  0
 29 31  1  0  0  0  0
 30 34  1  0  0  0  0
 31 33  1  0  0  0  0
 31 32  1  1  0  0  0
 33 34  1  0  0  0  0
 33 36  1  6  0  0  0
 34 35  1  6  0  0  0
 36 37  1  0  0  0  0
 37 38  2  0  0  0  0
 37 39  1  0  0  0  0
M  END
>  <COMPND>
    UNNAMED

>  <AUTHOR>
    GENERATED BY OPEN BABEL 2.4.90

>  <MASTER>
        0    0    0    0    0    0    0    0   39    0   39    0

