__4bn4_A_rec_4bn4_op2_lig_docked.pdb
 OpenBabel10201913163D

 20 19  0  0  0  0  0  0  0  0999 V2000
   22.2730   36.6580   -5.9130 C   0  0  0  0  0  0  0  0  0  0  0  0
   22.0890   37.7230   -6.9440 O   0  0  0  0  0  0  0  0  0  0  0  0
   21.7810   38.9860   -6.3870 C   0  0  0  0  0  0  0  0  0  0  0  0
   21.7300   40.1740   -7.3160 C   0  0  0  0  0  0  0  0  0  0  0  0
   22.9640   40.8930   -7.2340 O   0  0  0  0  0  0  0  0  0  0  0  0
   23.5170   41.3080   -8.4800 C   0  0  0  0  0  0  0  0  0  0  0  0
   23.5990   42.8110   -8.4110 C   0  0  0  0  0  0  0  0  0  0  0  0
   24.3530   43.2370   -9.5460 O   0  0  0  0  0  0  0  0  0  0  0  0
   23.7460   44.3240  -10.2640 C   0  0  0  0  0  0  0  0  0  0  0  0
   22.4680   44.6560   -9.5490 C   0  0  0  0  0  0  0  0  0  0  0  0
   22.4480   46.0970   -9.4560 O   0  0  0  0  0  0  0  0  0  0  0  0
   21.5450   35.3370   -6.3430 C   0  0  0  0  0  0  0  0  0  0  0  0
   21.6330   35.2890   -7.7930 O   0  0  0  0  0  0  0  0  0  0  0  0
   22.2320   34.1010   -8.4460 C   0  0  0  0  0  0  0  0  0  0  0  0
   21.1890   32.9930   -8.8160 C   0  0  0  0  0  0  0  0  0  0  0  0
   21.4610   31.9570   -7.8540 O   0  0  0  0  0  0  0  0  0  0  0  0
   21.3550   30.6440   -8.4770 C   0  0  0  0  0  0  0  0  0  0  0  0
   20.6700   28.8060   -7.1610 O   0  0  0  0  0  0  0  0  0  0  0  0
   21.5830   29.6600   -7.4490 C   0  0  0  0  0  0  0  0  0  0  0  0
   22.8440   29.4870   -7.2910 O   0  0  0  0  0  0  0  0  0  0  0  0
  1 12  1  0  0  0  0
  1  2  1  0  0  0  0
  2  3  1  0  0  0  0
  3  4  1  0  0  0  0
  4  5  1  0  0  0  0
  5  6  1  0  0  0  0
  6  7  1  0  0  0  0
  7  8  1  0  0  0  0
  8  9  1  0  0  0  0
  9 10  1  0  0  0  0
 10 11  1  0  0  0  0
 12 13  1  0  0  0  0
 13 14  1  0  0  0  0
 14 15  1  0  0  0  0
 15 16  1  0  0  0  0
 16 17  1  0  0  0  0
 17 19  1  0  0  0  0
 18 19  2  0  0  0  0
 19 20  1  0  0  0  0
M  END
>  <MODEL>
       2

>  <COMPND>
    UNNAMED

>  <AUTHOR>
    GENERATED BY OPEN BABEL 2.4.90

>  <MASTER>
        0    0    0    0    0    0    0    0   20    0   20    0

