__4bn4_A_rec_4bvh_oad_lig_docked.pdb
 OpenBabel10201913163D

 39 42  0  0  1  0  0  0  0  0999 V2000
   17.4270   28.0370  -14.4940 P   0  0  1  0  0  0  0  0  0  0  0  0
   16.8290   29.4480  -14.7430 O   0  0  0  0  0  0  0  0  0  0  0  0
   18.4490   27.8220  -13.4100 O   0  0  0  0  0  0  0  0  0  0  0  0
   16.1900   26.9740  -14.4600 O   0  0  0  0  0  0  0  0  0  0  0  0
   15.0980   27.2460  -13.5140 C   0  0  0  0  0  0  0  0  0  0  0  0
   13.9990   26.1740  -13.7810 C   0  0  1  0  0  0  0  0  0  0  0  0
   13.2880   25.9390  -12.5590 O   0  0  0  0  0  0  0  0  0  0  0  0
   13.0010   26.8130  -14.7320 C   0  0  1  0  0  0  0  0  0  0  0  0
   12.5940   25.8900  -15.6510 O   0  0  0  0  0  0  0  0  0  0  0  0
   11.8950   27.2970  -13.7870 C   0  0  1  0  0  0  0  0  0  0  0  0
   10.5780   27.2270  -14.4580 O   0  0  0  0  0  0  0  0  0  0  0  0
   11.9090   26.1690  -12.7030 C   0  0  2  0  0  0  0  0  0  0  0  0
   11.4820   26.5700  -11.3880 N   0  0  0  0  0  0  0  0  0  0  0  0
   11.7790   27.6910  -10.6830 C   0  0  0  0  0  0  0  0  0  0  0  0
   11.1740   27.6090   -9.5440 N   0  0  0  0  0  0  0  0  0  0  0  0
   10.5360   26.4450   -9.4280 C   0  0  0  0  0  0  0  0  0  0  0  0
    9.8030   25.8740   -8.4450 C   0  0  0  0  0  0  0  0  0  0  0  0
    9.6230   26.5110   -7.2850 N   0  0  0  0  0  0  0  0  0  0  0  0
    9.2510   24.6330   -8.6040 N   0  0  0  0  0  0  0  0  0  0  0  0
    9.4180   23.9680   -9.7830 C   0  0  0  0  0  0  0  0  0  0  0  0
   10.1880   24.5530  -10.7700 N   0  0  0  0  0  0  0  0  0  0  0  0
   10.7450   25.7860  -10.5600 C   0  0  0  0  0  0  0  0  0  0  0  0
   18.2120   27.5570  -15.8600 O   0  0  0  0  0  0  0  0  0  0  0  0
   19.2140   26.3680  -16.0580 P   0  0  2  0  0  0  0  0  0  0  0  0
   18.9870   25.5450  -17.2930 O   0  0  0  0  0  0  0  0  0  0  0  0
   19.4810   25.7160  -14.7580 O   0  0  0  0  0  0  0  0  0  0  0  0
   20.5130   27.2900  -16.4530 O   0  0  0  0  0  0  0  0  0  0  0  0
   21.4930   27.3750  -15.4280 C   0  0  0  0  0  0  0  0  0  0  0  0
   22.5800   28.3230  -15.8600 C   0  0  1  0  0  0  0  0  0  0  0  0
   21.9760   29.2980  -16.7460 O   0  0  0  0  0  0  0  0  0  0  0  0
   23.1330   29.1920  -14.7100 C   0  0  1  0  0  0  0  0  0  0  0  0
   24.0170   28.4690  -13.7650 O   0  0  0  0  0  0  0  0  0  0  0  0
   23.8510   30.3060  -15.5390 C   0  0  2  0  0  0  0  0  0  0  0  0
   22.8060   30.4940  -16.6900 C   0  0  1  0  0  0  0  0  0  0  0  0
   23.4070   30.5270  -18.0050 O   0  0  0  0  0  0  0  0  0  0  0  0
   25.1230   29.8020  -15.9570 O   0  0  0  0  0  0  0  0  0  0  0  0
   26.3490   30.2260  -15.4990 C   0  0  0  0  0  0  0  0  0  0  0  0
   26.8140   29.8530  -14.4130 O   0  0  0  0  0  0  0  0  0  0  0  0
   27.1020   31.2500  -16.3620 C   0  0  0  0  0  0  0  0  0  0  0  0
  1  2  2  6  0  0  0
  1  4  1  0  0  0  0
  1  3  1  0  0  0  0
  1 23  1  0  0  0  0
  4  5  1  0  0  0  0
  6  5  1  1  0  0  0
  6  8  1  0  0  0  0
  6  7  1  0  0  0  0
  7 12  1  0  0  0  0
  8  9  1  6  0  0  0
  8 10  1  0  0  0  0
 10 11  1  6  0  0  0
 10 12  1  0  0  0  0
 12 13  1  1  0  0  0
 13 14  1  0  0  0  0
 13 22  1  0  0  0  0
 14 15  2  0  0  0  0
 15 16  1  0  0  0  0
 16 22  2  0  0  0  0
 16 17  1  0  0  0  0
 17 19  2  0  0  0  0
 17 18  1  0  0  0  0
 19 20  1  0  0  0  0
 20 21  2  0  0  0  0
 21 22  1  0  0  0  0
 23 24  1  0  0  0  0
 24 27  1  0  0  0  0
 24 25  2  6  0  0  0
 24 26  1  0  0  0  0
 27 28  1  0  0  0  0
 29 28  1  1  0  0  0
 29 30  1  0  0  0  0
 29 31  1  0  0  0  0
 30 34  1  0  0  0  0
 31 33  1  0  0  0  0
 31 32  1  1  0  0  0
 33 34  1  0  0  0  0
 33 36  1  6  0  0  0
 34 35  1  6  0  0  0
 36 37  1  0  0  0  0
 37 38  2  0  0  0  0
 37 39  1  0  0  0  0
M  END
>  <MODEL>
       1

>  <COMPND>
    UNNAMED

>  <AUTHOR>
    GENERATED BY OPEN BABEL 2.4.90

>  <MASTER>
        0    0    0    0    0    0    0    0   39    0   39    0

