__4bv3_A_rec_4bvh_oad_lig_min.pdb
 OpenBabel10201913153D

 39 42  0  0  1  0  0  0  0  0999 V2000
   17.1380   28.2400  -14.8590 P   0  0  1  0  0  0  0  0  0  0  0  0
   17.5610   28.4810  -16.3340 O   0  0  0  0  0  0  0  0  0  0  0  0
   16.9340   29.4030  -13.9250 O   0  0  0  0  0  0  0  0  0  0  0  0
   15.9060   27.1720  -14.8650 O   0  0  0  0  0  0  0  0  0  0  0  0
   15.3610   26.7680  -13.5610 C   0  0  0  0  0  0  0  0  0  0  0  0
   14.1340   25.8540  -13.8540 C   0  0  1  0  0  0  0  0  0  0  0  0
   13.3820   25.7010  -12.6430 O   0  0  0  0  0  0  0  0  0  0  0  0
   13.2400   26.6290  -14.8080 C   0  0  1  0  0  0  0  0  0  0  0  0
   12.7270   25.7780  -15.7430 O   0  0  0  0  0  0  0  0  0  0  0  0
   12.1970   27.2450  -13.8700 C   0  0  1  0  0  0  0  0  0  0  0  0
   10.8900   27.3570  -14.5560 O   0  0  0  0  0  0  0  0  0  0  0  0
   12.0470   26.1130  -12.8000 C   0  0  2  0  0  0  0  0  0  0  0  0
   11.6610   26.5540  -11.4850 N   0  0  0  0  0  0  0  0  0  0  0  0
   12.0230   27.6680  -10.8000 C   0  0  0  0  0  0  0  0  0  0  0  0
   11.4320   27.6320   -9.6520 N   0  0  0  0  0  0  0  0  0  0  0  0
   10.7390   26.5020   -9.5090 C   0  0  0  0  0  0  0  0  0  0  0  0
    9.9940   25.9820   -8.5080 C   0  0  0  0  0  0  0  0  0  0  0  0
    9.8630   26.6430   -7.3550 N   0  0  0  0  0  0  0  0  0  0  0  0
    9.3790   24.7670   -8.6400 N   0  0  0  0  0  0  0  0  0  0  0  0
    9.4960   24.0780   -9.8120 C   0  0  0  0  0  0  0  0  0  0  0  0
   10.2790   24.6110  -10.8190 N   0  0  0  0  0  0  0  0  0  0  0  0
   10.8990   25.8180  -10.6340 C   0  0  0  0  0  0  0  0  0  0  0  0
   18.3140   27.3550  -14.1190 O   0  0  0  0  0  0  0  0  0  0  0  0
   19.2640   26.2690  -14.7300 P   0  0  2  0  0  0  0  0  0  0  0  0
   18.7490   25.6000  -15.9720 O   0  0  0  0  0  0  0  0  0  0  0  0
   19.8770   25.4730  -13.6460 O   0  0  0  0  0  0  0  0  0  0  0  0
   20.3890   27.3160  -15.3060 O   0  0  0  0  0  0  0  0  0  0  0  0
   21.4660   26.6870  -15.9870 C   0  0  0  0  0  0  0  0  0  0  0  0
   22.5980   27.6690  -16.1360 C   0  0  1  0  0  0  0  0  0  0  0  0
   22.1140   28.7680  -16.9480 O   0  0  0  0  0  0  0  0  0  0  0  0
   22.9930   28.3600  -14.8130 C   0  0  1  0  0  0  0  0  0  0  0  0
   23.7470   27.4990  -13.8720 O   0  0  0  0  0  0  0  0  0  0  0  0
   23.8120   29.5670  -15.3770 C   0  0  2  0  0  0  0  0  0  0  0  0
   22.9260   29.9300  -16.6170 C   0  0  1  0  0  0  0  0  0  0  0  0
   23.6960   30.1360  -17.8240 O   0  0  0  0  0  0  0  0  0  0  0  0
   25.1280   29.1060  -15.6910 O   0  0  0  0  0  0  0  0  0  0  0  0
   26.3070   29.7060  -15.3110 C   0  0  0  0  0  0  0  0  0  0  0  0
   26.9480   29.3340  -14.3190 O   0  0  0  0  0  0  0  0  0  0  0  0
   26.7700   30.9200  -16.1310 C   0  0  0  0  0  0  0  0  0  0  0  0
  1  2  2  6  0  0  0
  1  4  1  0  0  0  0
  1  3  1  0  0  0  0
  1 23  1  0  0  0  0
  4  5  1  0  0  0  0
  6  5  1  1  0  0  0
  6  8  1  0  0  0  0
  6  7  1  0  0  0  0
  7 12  1  0  0  0  0
  8  9  1  6  0  0  0
  8 10  1  0  0  0  0
 10 11  1  6  0  0  0
 10 12  1  0  0  0  0
 12 13  1  1  0  0  0
 13 14  1  0  0  0  0
 13 22  1  0  0  0  0
 14 15  2  0  0  0  0
 15 16  1  0  0  0  0
 16 22  2  0  0  0  0
 16 17  1  0  0  0  0
 17 19  2  0  0  0  0
 17 18  1  0  0  0  0
 19 20  1  0  0  0  0
 20 21  2  0  0  0  0
 21 22  1  0  0  0  0
 23 24  1  0  0  0  0
 24 27  1  0  0  0  0
 24 25  2  6  0  0  0
 24 26  1  0  0  0  0
 27 28  1  0  0  0  0
 29 28  1  1  0  0  0
 29 30  1  0  0  0  0
 29 31  1  0  0  0  0
 30 34  1  0  0  0  0
 31 33  1  0  0  0  0
 31 32  1  1  0  0  0
 33 34  1  0  0  0  0
 33 36  1  6  0  0  0
 34 35  1  6  0  0  0
 36 37  1  0  0  0  0
 37 38  2  0  0  0  0
 37 39  1  0  0  0  0
M  END
>  <COMPND>
    UNNAMED

>  <AUTHOR>
    GENERATED BY OPEN BABEL 2.4.90

>  <MASTER>
        0    0    0    0    0    0    0    0   39    0   39    0

