__4bvb_A_rec_4bvb_ocz_lig_docked.pdb
 OpenBabel10201913163D

 17 19  0  0  1  0  0  0  0  0999 V2000
   24.1590   29.0980  -10.4850 N   0  0  0  0  0  0  0  0  0  0  0  0
   23.5740   32.5190   -9.2850 C   0  0  0  0  0  0  0  0  0  0  0  0
   26.1670   29.2960  -11.8700 C   0  0  0  0  0  0  0  0  0  0  0  0
   27.0910   30.1420  -12.4340 C   0  0  0  0  0  0  0  0  0  0  0  0
   25.1710   29.7680  -11.0990 C   0  0  0  0  0  0  0  0  0  0  0  0
   28.2920   32.6010  -12.8730 Cl  0  0  0  0  0  0  0  0  0  0  0  0
   25.1280   31.0810  -10.7390 C   0  0  0  0  0  0  0  0  0  0  0  0
   26.0190   31.9570  -11.2590 C   0  0  0  0  0  0  0  0  0  0  0  0
   24.0960   31.2570   -9.8820 C   0  0  0  0  0  0  0  0  0  0  0  0
   23.4800   30.0180   -9.7320 C   0  0  1  0  0  0  0  0  0  0  0  0
   27.0440   31.5040  -12.1230 C   0  0  0  0  0  0  0  0  0  0  0  0
   22.3450   32.2200   -8.2680 C   0  0  0  0  0  0  0  0  0  0  0  0
   22.2650   29.8070   -8.9330 C   0  0  2  0  0  0  0  0  0  0  0  0
   21.4330   31.1700   -8.8800 C   0  0  0  0  0  0  0  0  0  0  0  0
   21.4150   28.7400   -6.9710 N   0  0  0  0  0  0  0  0  0  0  0  0
   23.6170   29.0520   -7.1530 O   0  0  0  0  0  0  0  0  0  0  0  0
   22.4850   29.1780   -7.6210 C   0  0  0  0  0  0  0  0  0  0  0  0
  1  5  2  0  0  0  0
  2  9  1  0  0  0  0
  2 12  1  0  0  0  0
  3  4  2  0  0  0  0
  3  5  1  0  0  0  0
  4 11  1  0  0  0  0
  5  7  1  0  0  0  0
  6 11  1  0  0  0  0
  7  8  1  0  0  0  0
  7  9  2  0  0  0  0
  8 11  2  0  0  0  0
  9 10  1  0  0  0  0
 10  1  1  6  0  0  0
 10 13  1  0  0  0  0
 12 14  1  0  0  0  0
 13 14  1  0  0  0  0
 13 17  1  1  0  0  0
 15 17  1  0  0  0  0
 16 17  2  0  0  0  0
M  END
>  <MODEL>
       1

>  <COMPND>
    UNNAMED

>  <AUTHOR>
    GENERATED BY OPEN BABEL 2.4.90

>  <MASTER>
        0    0    0    0    0    0    0    0   17    0   17    0

