__4bvg_A_rec_4bvb_ar6_lig_min.pdb
 OpenBabel10201913163D

 36 39  0  0  1  0  0  0  0  0999 V2000
   15.5430   27.2920  -15.0300 O   0  0  0  0  0  0  0  0  0  0  0  0
   16.5910   28.4430  -15.2020 P   0  0  2  0  0  0  0  0  0  0  0  0
   16.0640   29.5550  -14.3410 O   0  0  0  0  0  0  0  0  0  0  0  0
   16.9130   28.6210  -16.6750 O   0  0  0  0  0  0  0  0  0  0  0  0
   17.9690   27.9780  -14.5130 O   0  0  0  0  0  0  0  0  0  0  0  0
   19.0900   26.9470  -15.0840 P   0  0  1  0  0  0  0  0  0  0  0  0
   19.7310   26.3070  -13.8790 O   0  0  0  0  0  0  0  0  0  0  0  0
   18.5300   26.1250  -16.2060 O   0  0  0  0  0  0  0  0  0  0  0  0
   20.2430   27.5850  -15.9390 O   0  0  0  0  0  0  0  0  0  0  0  0
   21.0460   28.2660  -15.1160 C   0  0  0  0  0  0  0  0  0  0  0  0
   22.2480   30.7660  -16.5590 C   0  0  2  0  0  0  0  0  0  0  0  0
   22.9500   31.1050  -17.7830 O   0  0  0  0  0  0  0  0  0  0  0  0
   23.3660   30.5630  -15.5730 C   0  0  2  0  0  0  0  0  0  0  0  0
   24.5650   30.3790  -16.3830 O   0  0  0  0  0  0  0  0  0  0  0  0
   23.0230   29.2410  -14.9260 C   0  0  2  0  0  0  0  0  0  0  0  0
   24.1470   28.4790  -14.4280 O   0  0  0  0  0  0  0  0  0  0  0  0
   22.2650   28.4850  -15.9860 C   0  0  2  0  0  0  0  0  0  0  0  0
   21.6910   29.4760  -16.8140 O   0  0  0  0  0  0  0  0  0  0  0  0
   15.1450   26.8810  -13.7200 C   0  0  0  0  0  0  0  0  0  0  0  0
   11.9090   26.1070  -12.8640 C   0  0  1  0  0  0  0  0  0  0  0  0
   11.8550   27.2050  -13.9120 C   0  0  2  0  0  0  0  0  0  0  0  0
   10.4990   27.1100  -14.4180 O   0  0  0  0  0  0  0  0  0  0  0  0
   12.9110   26.6970  -14.8800 C   0  0  2  0  0  0  0  0  0  0  0  0
   12.3060   25.6660  -15.6730 O   0  0  0  0  0  0  0  0  0  0  0  0
   13.9200   25.9760  -13.9670 C   0  0  2  0  0  0  0  0  0  0  0  0
   13.2880   25.7760  -12.6940 O   0  0  0  0  0  0  0  0  0  0  0  0
    9.3590   24.8510   -8.5840 N   0  0  0  0  0  0  0  0  0  0  0  0
    9.4820   24.1330   -9.7410 C   0  0  0  0  0  0  0  0  0  0  0  0
   10.2000   24.5920  -10.7700 N   0  0  0  0  0  0  0  0  0  0  0  0
   10.7880   25.8040  -10.7010 C   0  0  0  0  0  0  0  0  0  0  0  0
   10.6350   26.6270   -9.5180 C   0  0  0  0  0  0  0  0  0  0  0  0
    9.8780   26.0590   -8.4260 C   0  0  0  0  0  0  0  0  0  0  0  0
    9.7210   26.7450   -7.2680 N   0  0  0  0  0  0  0  0  0  0  0  0
   11.2890   27.8080   -9.7380 N   0  0  0  0  0  0  0  0  0  0  0  0
   11.8190   27.7170  -10.9840 C   0  0  0  0  0  0  0  0  0  0  0  0
   11.4840   26.5620  -11.5660 N   0  0  0  0  0  0  0  0  0  0  0  0
  1  2  1  0  0  0  0
  1 19  1  0  0  0  0
  2  4  2  6  0  0  0
  2  3  1  0  0  0  0
  2  5  1  0  0  0  0
  5  6  1  0  0  0  0
  6  9  1  0  0  0  0
  6  8  2  6  0  0  0
  6  7  1  0  0  0  0
  9 10  1  0  0  0  0
 11 12  1  6  0  0  0
 11 18  1  0  0  0  0
 11 13  1  0  0  0  0
 13 14  1  6  0  0  0
 13 15  1  0  0  0  0
 15 17  1  0  0  0  0
 15 16  1  6  0  0  0
 17 10  1  1  0  0  0
 17 18  1  0  0  0  0
 20 21  1  0  0  0  0
 20 26  1  0  0  0  0
 20 36  1  1  0  0  0
 21 23  1  0  0  0  0
 21 22  1  6  0  0  0
 23 24  1  6  0  0  0
 23 25  1  0  0  0  0
 25 19  1  1  0  0  0
 25 26  1  0  0  0  0
 27 28  2  0  0  0  0
 27 32  1  0  0  0  0
 28 29  1  0  0  0  0
 29 30  2  0  0  0  0
 30 36  1  0  0  0  0
 30 31  1  0  0  0  0
 31 34  1  0  0  0  0
 31 32  2  0  0  0  0
 32 33  1  0  0  0  0
 34 35  2  0  0  0  0
 35 36  1  0  0  0  0
M  END
>  <COMPND>
    UNNAMED

>  <AUTHOR>
    GENERATED BY OPEN BABEL 2.4.90

>  <MASTER>
        0    0    0    0    0    0    0    0   36    0   36    0

