__4bvh_A_rec_4bvh_oad_lig_min.pdb
 OpenBabel10201913153D

 39 42  0  0  1  0  0  0  0  0999 V2000
   17.0100   28.2690  -14.8480 P   0  0  1  0  0  0  0  0  0  0  0  0
   17.2670   28.6360  -16.3340 O   0  0  0  0  0  0  0  0  0  0  0  0
   16.8000   29.3500  -13.8220 O   0  0  0  0  0  0  0  0  0  0  0  0
   15.8790   27.0950  -14.8160 O   0  0  0  0  0  0  0  0  0  0  0  0
   15.2720   26.7830  -13.5130 C   0  0  0  0  0  0  0  0  0  0  0  0
   14.0260   25.8940  -13.8030 C   0  0  1  0  0  0  0  0  0  0  0  0
   13.2860   25.7380  -12.5860 O   0  0  0  0  0  0  0  0  0  0  0  0
   13.1350   26.6960  -14.7370 C   0  0  1  0  0  0  0  0  0  0  0  0
   12.5960   25.8660  -15.6760 O   0  0  0  0  0  0  0  0  0  0  0  0
   12.1130   27.3180  -13.7780 C   0  0  1  0  0  0  0  0  0  0  0  0
   10.8010   27.4620  -14.4470 O   0  0  0  0  0  0  0  0  0  0  0  0
   11.9570   26.1750  -12.7210 C   0  0  2  0  0  0  0  0  0  0  0  0
   11.5940   26.6050  -11.3960 N   0  0  0  0  0  0  0  0  0  0  0  0
   11.9500   27.7240  -10.7170 C   0  0  0  0  0  0  0  0  0  0  0  0
   11.3870   27.6740   -9.5550 N   0  0  0  0  0  0  0  0  0  0  0  0
   10.7220   26.5300   -9.3990 C   0  0  0  0  0  0  0  0  0  0  0  0
   10.0110   25.9930   -8.3810 C   0  0  0  0  0  0  0  0  0  0  0  0
    9.8940   26.6490   -7.2230 N   0  0  0  0  0  0  0  0  0  0  0  0
    9.4180   24.7670   -8.5020 N   0  0  0  0  0  0  0  0  0  0  0  0
    9.5200   24.0820   -9.6780 C   0  0  0  0  0  0  0  0  0  0  0  0
   10.2670   24.6330  -10.7020 N   0  0  0  0  0  0  0  0  0  0  0  0
   10.8670   25.8520  -10.5300 C   0  0  0  0  0  0  0  0  0  0  0  0
   18.3230   27.4520  -14.2800 O   0  0  0  0  0  0  0  0  0  0  0  0
   19.2200   26.3940  -15.0100 P   0  0  2  0  0  0  0  0  0  0  0  0
   18.6380   25.8330  -16.2750 O   0  0  0  0  0  0  0  0  0  0  0  0
   19.8550   25.5030  -14.0160 O   0  0  0  0  0  0  0  0  0  0  0  0
   20.3480   27.4550  -15.5530 O   0  0  0  0  0  0  0  0  0  0  0  0
   21.6240   27.2970  -14.9500 C   0  0  0  0  0  0  0  0  0  0  0  0
   22.6140   28.1940  -15.6450 C   0  0  1  0  0  0  0  0  0  0  0  0
   21.8570   29.2170  -16.3390 O   0  0  0  0  0  0  0  0  0  0  0  0
   23.4950   29.0090  -14.6750 C   0  0  1  0  0  0  0  0  0  0  0  0
   24.5520   28.2230  -13.9970 O   0  0  0  0  0  0  0  0  0  0  0  0
   24.0360   30.0990  -15.6570 C   0  0  2  0  0  0  0  0  0  0  0  0
   22.7390   30.3660  -16.4960 C   0  0  1  0  0  0  0  0  0  0  0  0
   22.9800   30.3910  -17.9210 O   0  0  0  0  0  0  0  0  0  0  0  0
   25.1240   29.5360  -16.3940 O   0  0  0  0  0  0  0  0  0  0  0  0
   26.4240   29.9880  -16.3860 C   0  0  0  0  0  0  0  0  0  0  0  0
   27.3860   29.2340  -16.5840 O   0  0  0  0  0  0  0  0  0  0  0  0
   26.6480   31.4690  -16.0460 C   0  0  0  0  0  0  0  0  0  0  0  0
  1  2  2  6  0  0  0
  1  4  1  0  0  0  0
  1  3  1  0  0  0  0
  1 23  1  0  0  0  0
  4  5  1  0  0  0  0
  6  5  1  1  0  0  0
  6  8  1  0  0  0  0
  6  7  1  0  0  0  0
  7 12  1  0  0  0  0
  8  9  1  6  0  0  0
  8 10  1  0  0  0  0
 10 11  1  6  0  0  0
 10 12  1  0  0  0  0
 12 13  1  1  0  0  0
 13 14  1  0  0  0  0
 13 22  1  0  0  0  0
 14 15  2  0  0  0  0
 15 16  1  0  0  0  0
 16 22  2  0  0  0  0
 16 17  1  0  0  0  0
 17 19  2  0  0  0  0
 17 18  1  0  0  0  0
 19 20  1  0  0  0  0
 20 21  2  0  0  0  0
 21 22  1  0  0  0  0
 23 24  1  0  0  0  0
 24 27  1  0  0  0  0
 24 25  2  6  0  0  0
 24 26  1  0  0  0  0
 27 28  1  0  0  0  0
 29 28  1  1  0  0  0
 29 30  1  0  0  0  0
 29 31  1  0  0  0  0
 30 34  1  0  0  0  0
 31 33  1  0  0  0  0
 31 32  1  6  0  0  0
 33 34  1  0  0  0  0
 33 36  1  6  0  0  0
 34 35  1  6  0  0  0
 36 37  1  0  0  0  0
 37 38  2  0  0  0  0
 37 39  1  0  0  0  0
M  END
>  <COMPND>
    UNNAMED

>  <AUTHOR>
    GENERATED BY OPEN BABEL 2.4.90

>  <MASTER>
        0    0    0    0    0    0    0    0   39    0   39    0

