__4bvh_A_rec_4bv3_ocz_lig_docked.pdb
 OpenBabel10201913163D

 17 19  0  0  1  0  0  0  0  0999 V2000
   23.9750   29.3930  -10.6040 N   0  0  0  0  0  0  0  0  0  0  0  0
   23.7050   32.8650   -9.4950 C   0  0  0  0  0  0  0  0  0  0  0  0
   25.9100   29.3540  -12.1210 C   0  0  0  0  0  0  0  0  0  0  0  0
   26.9680   30.0680  -12.6590 C   0  0  0  0  0  0  0  0  0  0  0  0
   25.0260   29.9190  -11.2470 C   0  0  0  0  0  0  0  0  0  0  0  0
   28.4020   32.4380  -13.0660 Cl  0  0  0  0  0  0  0  0  0  0  0  0
   25.0440   31.2460  -10.9280 C   0  0  0  0  0  0  0  0  0  0  0  0
   26.0850   31.9820  -11.4290 C   0  0  0  0  0  0  0  0  0  0  0  0
   24.0100   31.5610  -10.1100 C   0  0  0  0  0  0  0  0  0  0  0  0
   23.3280   30.3900   -9.8920 C   0  0  1  0  0  0  0  0  0  0  0  0
   27.0380   31.4020  -12.3130 C   0  0  0  0  0  0  0  0  0  0  0  0
   22.5430   32.6600   -8.5100 C   0  0  0  0  0  0  0  0  0  0  0  0
   22.1530   30.2430   -9.0910 C   0  0  2  0  0  0  0  0  0  0  0  0
   21.5210   31.6070   -9.0230 C   0  0  0  0  0  0  0  0  0  0  0  0
   21.2380   28.9840   -7.2630 N   0  0  0  0  0  0  0  0  0  0  0  0
   23.4320   29.4100   -7.2130 O   0  0  0  0  0  0  0  0  0  0  0  0
   22.3370   29.5330   -7.8210 C   0  0  0  0  0  0  0  0  0  0  0  0
  1  5  2  0  0  0  0
  2  9  1  0  0  0  0
  2 12  1  0  0  0  0
  3  4  2  0  0  0  0
  3  5  1  0  0  0  0
  4 11  1  0  0  0  0
  5  7  1  0  0  0  0
  6 11  1  0  0  0  0
  7  8  1  0  0  0  0
  7  9  2  0  0  0  0
  8 11  2  0  0  0  0
  9 10  1  0  0  0  0
 10  1  1  6  0  0  0
 10 13  1  0  0  0  0
 12 14  1  0  0  0  0
 13 14  1  0  0  0  0
 13 17  1  1  0  0  0
 15 17  1  0  0  0  0
 16 17  2  0  0  0  0
M  END
>  <MODEL>
       1

>  <COMPND>
    UNNAMED

>  <AUTHOR>
    GENERATED BY OPEN BABEL 2.4.90

>  <MASTER>
        0    0    0    0    0    0    0    0   17    0   17    0

