__4jt8_A_rec_4jsr_1nq_lig_min.pdb
 OpenBabel10201913153D

 33 36  0  0  0  0  0  0  0  0999 V2000
   25.8170   30.8970  -14.7260 C   0  0  0  0  0  0  0  0  0  0  0  0
   25.3870   30.6590  -13.2770 C   0  0  0  0  0  0  0  0  0  0  0  0
   24.1200   29.8030  -13.2150 C   0  0  0  0  0  0  0  0  0  0  0  0
   24.6960   31.6130  -15.4810 C   0  0  0  0  0  0  0  0  0  0  0  0
   23.4100   30.7830  -15.4750 C   0  0  0  0  0  0  0  0  0  0  0  0
   23.0800   30.3960  -14.0840 N   0  0  0  0  0  0  0  0  0  0  0  0
   21.7850   30.5930  -13.5930 C   0  0  0  0  0  0  0  0  0  0  0  0
   20.7950   30.9650  -14.4150 N   0  0  0  0  0  0  0  0  0  0  0  0
   19.5730   31.1490  -13.9480 C   0  0  0  0  0  0  0  0  0  0  0  0
   19.2780   30.9780  -12.6700 N   0  0  0  0  0  0  0  0  0  0  0  0
   20.2060   30.6060  -11.7750 C   0  0  0  0  0  0  0  0  0  0  0  0
   20.0740   30.3900  -10.4470 C   0  0  0  0  0  0  0  0  0  0  0  0
   21.5070   30.4050  -12.2480 C   0  0  0  0  0  0  0  0  0  0  0  0
   22.4490   29.9530  -10.9300 S   0  0  0  0  0  0  0  0  0  0  0  0
   21.1970   30.0250   -9.8210 C   0  0  0  0  0  0  0  0  0  0  0  0
   21.3190   29.7230   -8.3260 C   0  0  0  0  0  0  0  0  0  0  0  0
   22.4010   29.8130   -7.7480 O   0  0  0  0  0  0  0  0  0  0  0  0
   20.1850   29.3640   -7.7300 N   0  0  0  0  0  0  0  0  0  0  0  0
   27.0800   31.7590  -14.7490 C   0  0  0  0  0  0  0  0  0  0  0  0
   27.3510   32.3000  -16.1540 C   0  0  0  0  0  0  0  0  0  0  0  0
   27.5970   30.5110  -17.8080 C   0  0  0  0  0  0  0  0  0  0  0  0
   26.3980   30.5000  -18.0840 O   0  0  0  0  0  0  0  0  0  0  0  0
   28.1470   31.3230  -16.9110 N   0  0  0  0  0  0  0  0  0  0  0  0
   29.7420   27.7600  -19.6800 C   0  0  0  0  0  0  0  0  0  0  0  0
   28.1680   28.0850  -19.1990 S   0  0  0  0  0  0  0  0  0  0  0  0
   30.5330   28.7720  -19.3020 C   0  0  0  0  0  0  0  0  0  0  0  0
   29.8860   29.7650  -18.6510 C   0  0  0  0  0  0  0  0  0  0  0  0
   28.5720   29.5580  -18.5020 C   0  0  0  0  0  0  0  0  0  0  0  0
   31.5020   26.4590  -20.6990 N   0  0  0  0  0  0  0  0  0  0  0  0
   30.2010   26.5070  -20.4310 C   0  0  0  0  0  0  0  0  0  0  0  0
   29.3980   25.6300  -20.7480 O   0  0  0  0  0  0  0  0  0  0  0  0
   32.3780   25.7220  -22.8670 C   0  0  0  0  0  0  0  0  0  0  0  0
   32.1080   25.3250  -21.4130 C   0  0  0  0  0  0  0  0  0  0  0  0
  1  4  1  0  0  0  0
  1 19  1  0  0  0  0
  1  2  1  0  0  0  0
  2  3  1  0  0  0  0
  3  6  1  0  0  0  0
  4  5  1  0  0  0  0
  5  6  1  0  0  0  0
  6  7  1  0  0  0  0
  7  8  2  0  0  0  0
  7 13  1  0  0  0  0
  8  9  1  0  0  0  0
  9 10  2  0  0  0  0
 10 11  1  0  0  0  0
 11 13  2  0  0  0  0
 11 12  1  0  0  0  0
 12 15  2  0  0  0  0
 13 14  1  0  0  0  0
 14 15  1  0  0  0  0
 15 16  1  0  0  0  0
 16 17  2  0  0  0  0
 16 18  1  0  0  0  0
 19 20  1  0  0  0  0
 20 23  1  0  0  0  0
 21 28  1  0  0  0  0
 21 22  2  0  0  0  0
 21 23  1  0  0  0  0
 24 30  1  0  0  0  0
 24 25  1  0  0  0  0
 24 26  2  0  0  0  0
 25 28  1  0  0  0  0
 26 27  1  0  0  0  0
 27 28  2  0  0  0  0
 29 33  1  0  0  0  0
 29 30  1  0  0  0  0
 30 31  2  0  0  0  0
 32 33  1  0  0  0  0
M  END
>  <COMPND>
    UNNAMED

>  <AUTHOR>
    GENERATED BY OPEN BABEL 2.4.90

>  <MASTER>
        0    0    0    0    0    0    0    0   33    0   33    0

