__4jt8_A_rec_4jt8_1nr_lig_docked.pdb
 OpenBabel10201913163D

 27 29  0  0  0  0  0  0  0  0999 V2000
   25.7810   30.9550  -14.7570 C   0  0  0  0  0  0  0  0  0  0  0  0
   25.4340   30.7390  -13.2720 C   0  0  0  0  0  0  0  0  0  0  0  0
   24.2530   29.7610  -13.1070 C   0  0  0  0  0  0  0  0  0  0  0  0
   24.5320   31.3710  -15.5880 C   0  0  0  0  0  0  0  0  0  0  0  0
   23.3770   30.3570  -15.3930 C   0  0  0  0  0  0  0  0  0  0  0  0
   23.0910   30.2050  -13.9310 N   0  0  0  0  0  0  0  0  0  0  0  0
   21.8420   30.4570  -13.4340 C   0  0  0  0  0  0  0  0  0  0  0  0
   20.9180   30.8520  -14.3380 N   0  0  0  0  0  0  0  0  0  0  0  0
   19.6160   31.1440  -13.9610 C   0  0  0  0  0  0  0  0  0  0  0  0
   19.3050   31.0120  -12.6100 N   0  0  0  0  0  0  0  0  0  0  0  0
   20.2280   30.6120  -11.7100 C   0  0  0  0  0  0  0  0  0  0  0  0
   20.0380   30.4460  -10.3770 C   0  0  0  0  0  0  0  0  0  0  0  0
   21.4900   30.3370  -12.1290 C   0  0  0  0  0  0  0  0  0  0  0  0
   22.3330   29.8860  -10.7340 S   0  0  0  0  0  0  0  0  0  0  0  0
   21.1140   30.0390   -9.6960 C   0  0  0  0  0  0  0  0  0  0  0  0
   21.2000   29.7750   -8.3830 C   0  0  0  0  0  0  0  0  0  0  0  0
   22.2890   29.8260   -7.8210 O   0  0  0  0  0  0  0  0  0  0  0  0
   20.0880   29.3680   -7.7600 N   0  0  0  0  0  0  0  0  0  0  0  0
   26.9240   32.0060  -14.8650 C   0  0  0  0  0  0  0  0  0  0  0  0
   27.3020   32.3280  -16.3320 C   0  0  0  0  0  0  0  0  0  0  0  0
   27.5780   30.4140  -17.8630 C   0  0  0  0  0  0  0  0  0  0  0  0
   26.4090   30.4780  -18.2380 O   0  0  0  0  0  0  0  0  0  0  0  0
   28.0990   31.2520  -16.9510 N   0  0  0  0  0  0  0  0  0  0  0  0
   29.4140   29.9780  -19.4850 C   0  0  0  0  0  0  0  0  0  0  0  0
   28.5210   29.3470  -18.4470 C   0  0  0  0  0  0  0  0  0  0  0  0
   27.7020   28.2440  -19.1140 C   0  0  0  0  0  0  0  0  0  0  0  0
   29.4070   28.7300  -17.3760 C   0  0  0  0  0  0  0  0  0  0  0  0
  1  4  1  0  0  0  0
  1 19  1  0  0  0  0
  1  2  1  0  0  0  0
  2  3  1  0  0  0  0
  3  6  1  0  0  0  0
  4  5  1  0  0  0  0
  5  6  1  0  0  0  0
  6  7  1  0  0  0  0
  7  8  2  0  0  0  0
  7 13  1  0  0  0  0
  8  9  1  0  0  0  0
  9 10  2  0  0  0  0
 10 11  1  0  0  0  0
 11 13  2  0  0  0  0
 11 12  1  0  0  0  0
 12 15  2  0  0  0  0
 13 14  1  0  0  0  0
 14 15  1  0  0  0  0
 15 16  1  0  0  0  0
 16 17  2  0  0  0  0
 16 18  1  0  0  0  0
 19 20  1  0  0  0  0
 20 23  1  0  0  0  0
 21 25  1  0  0  0  0
 21 22  2  0  0  0  0
 21 23  1  0  0  0  0
 24 25  1  0  0  0  0
 25 26  1  0  0  0  0
 25 27  1  0  0  0  0
M  END
>  <MODEL>
       1

>  <COMPND>
    UNNAMED

>  <AUTHOR>
    GENERATED BY OPEN BABEL 2.4.90

>  <MASTER>
        0    0    0    0    0    0    0    0   27    0   27    0

