__4jt9_A_rec_4jt8_1nr_lig_min.pdb
 OpenBabel10201913153D

 27 29  0  0  0  0  0  0  0  0999 V2000
   25.7740   30.9010  -13.9970 C   0  0  0  0  0  0  0  0  0  0  0  0
   25.1230   29.8720  -13.0550 C   0  0  0  0  0  0  0  0  0  0  0  0
   23.8070   29.3250  -13.6410 C   0  0  0  0  0  0  0  0  0  0  0  0
   24.7770   32.0290  -14.3990 C   0  0  0  0  0  0  0  0  0  0  0  0
   23.4750   31.4300  -14.9860 C   0  0  0  0  0  0  0  0  0  0  0  0
   22.8970   30.4480  -14.0150 N   0  0  0  0  0  0  0  0  0  0  0  0
   21.6250   30.6040  -13.5390 C   0  0  0  0  0  0  0  0  0  0  0  0
   20.6950   30.9660  -14.4500 N   0  0  0  0  0  0  0  0  0  0  0  0
   19.3700   31.1620  -14.0930 C   0  0  0  0  0  0  0  0  0  0  0  0
   19.0410   30.9700  -12.7530 N   0  0  0  0  0  0  0  0  0  0  0  0
   19.9700   30.6020  -11.8460 C   0  0  0  0  0  0  0  0  0  0  0  0
   19.7650   30.3840  -10.5230 C   0  0  0  0  0  0  0  0  0  0  0  0
   21.2560   30.4220  -12.2460 C   0  0  0  0  0  0  0  0  0  0  0  0
   22.0980   29.9840  -10.8460 S   0  0  0  0  0  0  0  0  0  0  0  0
   20.8520   30.0270   -9.8300 C   0  0  0  0  0  0  0  0  0  0  0  0
   20.9290   29.7300   -8.5250 C   0  0  0  0  0  0  0  0  0  0  0  0
   22.0180   29.7410   -7.9590 O   0  0  0  0  0  0  0  0  0  0  0  0
   19.8060   29.3350   -7.9130 N   0  0  0  0  0  0  0  0  0  0  0  0
   27.0530   31.4750  -13.3210 C   0  0  0  0  0  0  0  0  0  0  0  0
   28.0180   32.1400  -14.3340 C   0  0  0  0  0  0  0  0  0  0  0  0
   28.0320   31.6370  -16.7480 C   0  0  0  0  0  0  0  0  0  0  0  0
   27.5210   32.7190  -17.0300 O   0  0  0  0  0  0  0  0  0  0  0  0
   28.3050   31.2650  -15.4870 N   0  0  0  0  0  0  0  0  0  0  0  0
   29.3580   31.2920  -18.8260 C   0  0  0  0  0  0  0  0  0  0  0  0
   28.3970   30.6410  -17.8630 C   0  0  0  0  0  0  0  0  0  0  0  0
   27.1390   30.2370  -18.6280 C   0  0  0  0  0  0  0  0  0  0  0  0
   29.0630   29.3910  -17.3070 C   0  0  0  0  0  0  0  0  0  0  0  0
  1  4  1  0  0  0  0
  1 19  1  0  0  0  0
  1  2  1  0  0  0  0
  2  3  1  0  0  0  0
  3  6  1  0  0  0  0
  4  5  1  0  0  0  0
  5  6  1  0  0  0  0
  6  7  1  0  0  0  0
  7  8  2  0  0  0  0
  7 13  1  0  0  0  0
  8  9  1  0  0  0  0
  9 10  2  0  0  0  0
 10 11  1  0  0  0  0
 11 13  2  0  0  0  0
 11 12  1  0  0  0  0
 12 15  2  0  0  0  0
 13 14  1  0  0  0  0
 14 15  1  0  0  0  0
 15 16  1  0  0  0  0
 16 17  2  0  0  0  0
 16 18  1  0  0  0  0
 19 20  1  0  0  0  0
 20 23  1  0  0  0  0
 21 25  1  0  0  0  0
 21 22  2  0  0  0  0
 21 23  1  0  0  0  0
 24 25  1  0  0  0  0
 25 26  1  0  0  0  0
 25 27  1  0  0  0  0
M  END
>  <COMPND>
    UNNAMED

>  <AUTHOR>
    GENERATED BY OPEN BABEL 2.4.90

>  <MASTER>
        0    0    0    0    0    0    0    0   27    0   27    0

