__4dn5_A_rec_4dn5_ags_lig_min.pdb
 OpenBabel10191916443D

 31 33  0  0  1  0  0  0  0  0999 V2000
   -6.3530   29.3820   -6.6040 C   0  0  1  0  0  0  0  0  0  0  0  0
   -5.3760   30.2690   -6.0570 O   0  0  0  0  0  0  0  0  0  0  0  0
   -6.3850   28.1760   -5.6720 C   0  0  1  0  0  0  0  0  0  0  0  0
   -6.6700   26.9710   -6.3820 O   0  0  0  0  0  0  0  0  0  0  0  0
   -4.9930   28.1380   -5.0780 C   0  0  1  0  0  0  0  0  0  0  0  0
   -4.1400   27.3300   -5.8930 O   0  0  0  0  0  0  0  0  0  0  0  0
   -4.5240   29.5840   -5.1280 C   0  0  2  0  0  0  0  0  0  0  0  0
   -4.6620   30.1990   -3.7830 N   0  0  0  0  0  0  0  0  0  0  0  0
   -5.8150   30.6230   -3.2350 C   0  0  0  0  0  0  0  0  0  0  0  0
   -5.5700   31.1300   -2.0090 N   0  0  0  0  0  0  0  0  0  0  0  0
   -4.2460   31.0250   -1.7860 C   0  0  0  0  0  0  0  0  0  0  0  0
   -3.4320   31.3780   -0.7140 C   0  0  0  0  0  0  0  0  0  0  0  0
   -3.9750   31.9500    0.3920 N   0  0  0  0  0  0  0  0  0  0  0  0
   -2.0990   31.1350   -0.7850 N   0  0  0  0  0  0  0  0  0  0  0  0
   -1.5640   30.5630   -1.8780 C   0  0  0  0  0  0  0  0  0  0  0  0
   -2.3290   30.2160   -2.9280 N   0  0  0  0  0  0  0  0  0  0  0  0
   -3.6730   30.4360   -2.9080 C   0  0  0  0  0  0  0  0  0  0  0  0
   -7.7040   30.0830   -6.7590 C   0  0  0  0  0  0  0  0  0  0  0  0
   -8.0250   30.8760   -5.6160 O   0  0  0  0  0  0  0  0  0  0  0  0
   -9.4550   30.7310   -4.8810 P   0  0  1  0  0  0  0  0  0  0  0  0
   -9.8260   29.2720   -4.8750 O   0  0  0  0  0  0  0  0  0  0  0  0
   -9.3580   31.4760   -3.5710 O   0  0  0  0  0  0  0  0  0  0  0  0
  -10.4480   31.5620   -5.8590 O   0  0  0  0  0  0  0  0  0  0  0  0
  -11.4060   30.9140   -6.9890 P   0  0  1  0  0  0  0  0  0  0  0  0
  -11.6600   31.9690   -8.0270 O   0  0  0  0  0  0  0  0  0  0  0  0
  -10.8180   29.6020   -7.4420 O   0  0  0  0  0  0  0  0  0  0  0  0
  -12.7910   30.5970   -6.2130 O   0  0  0  0  0  0  0  0  0  0  0  0
  -14.2640   30.9480   -6.8080 P   0  0  2  0  0  0  0  0  0  0  0  0
  -15.5910   29.5870   -6.3960 S   0  0  0  0  0  0  0  0  0  0  0  0
  -14.1730   30.9690   -8.3220 O   0  0  0  0  0  0  0  0  0  0  0  0
  -14.7400   32.1750   -6.0490 O   0  0  0  0  0  0  0  0  0  0  0  0
  1 18  1  1  0  0  0
  1  2  1  0  0  0  0
  1  3  1  0  0  0  0
  2  7  1  0  0  0  0
  3  4  1  6  0  0  0
  3  5  1  0  0  0  0
  5  6  1  6  0  0  0
  5  7  1  0  0  0  0
  7  8  1  1  0  0  0
  8  9  1  0  0  0  0
  8 17  1  0  0  0  0
  9 10  2  0  0  0  0
 10 11  1  0  0  0  0
 11 17  2  0  0  0  0
 11 12  1  0  0  0  0
 12 14  2  0  0  0  0
 12 13  1  0  0  0  0
 14 15  1  0  0  0  0
 15 16  2  0  0  0  0
 16 17  1  0  0  0  0
 18 19  1  0  0  0  0
 19 20  1  0  0  0  0
 20 23  1  0  0  0  0
 20 21  2  1  0  0  0
 20 22  1  0  0  0  0
 23 24  1  0  0  0  0
 24 25  2  6  0  0  0
 24 26  1  0  0  0  0
 24 27  1  0  0  0  0
 27 28  1  0  0  0  0
 28 30  2  6  0  0  0
 28 31  1  0  0  0  0
 28 29  1  0  0  0  0
M  END
>  <COMPND>
    UNNAMED

>  <AUTHOR>
    GENERATED BY OPEN BABEL 2.4.90

>  <MASTER>
        0    0    0    0    0    0    0    0   31    0   31    0

