__4g3d_A_rec_4idv_13v_lig_min.pdb
 OpenBabel10191916423D

 27 29  0  0  1  0  0  0  0  0999 V2000
   -6.5620   30.2850   -3.6210 C   0  0  0  0  0  0  0  0  0  0  0  0
   -6.6100   29.7070   -4.8760 C   0  0  0  0  0  0  0  0  0  0  0  0
   -7.8790   29.6840   -5.2890 N   0  0  0  0  0  0  0  0  0  0  0  0
   -7.8640   30.6140   -3.2840 C   0  0  1  0  0  0  0  0  0  0  0  0
   -8.6940   30.2260   -4.3440 C   0  0  0  0  0  0  0  0  0  0  0  0
  -10.0650   30.4220   -4.3090 C   0  0  0  0  0  0  0  0  0  0  0  0
  -10.6540   31.0200   -3.2140 C   0  0  0  0  0  0  0  0  0  0  0  0
   -8.4890   31.2090   -2.1860 C   0  0  0  0  0  0  0  0  0  0  0  0
   -9.8670   31.4140   -2.1510 C   0  0  0  0  0  0  0  0  0  0  0  0
   -4.5180   32.5240    0.0470 N   0  0  0  0  0  0  0  0  0  0  0  0
   -4.3760   31.6340   -0.9490 C   0  0  0  0  0  0  0  0  0  0  0  0
   -5.4360   31.4260   -1.7270 N   0  0  0  0  0  0  0  0  0  0  0  0
   -3.1960   31.0680   -1.0520 N   0  0  0  0  0  0  0  0  0  0  0  0
   -3.0720   30.1650   -2.0530 C   0  0  0  0  0  0  0  0  0  0  0  0
   -4.1110   29.8560   -2.9650 C   0  0  0  0  0  0  0  0  0  0  0  0
   -5.3510   30.5330   -2.7440 C   0  0  0  0  0  0  0  0  0  0  0  0
   -4.0130   28.8790   -3.9760 O   0  0  0  0  0  0  0  0  0  0  0  0
   -3.3200   28.8570   -5.1990 C   0  0  0  0  0  0  0  0  0  0  0  0
   -3.8810   27.6250   -5.9330 C   0  0  0  0  0  0  0  0  0  0  0  0
   -4.7050   27.9250   -7.0510 O   0  0  0  0  0  0  0  0  0  0  0  0
   -5.9250   27.2870   -7.3710 C   0  0  0  0  0  0  0  0  0  0  0  0
  -10.4440   32.0060   -1.0310 C   0  0  0  0  0  0  0  0  0  0  0  0
  -10.9380   32.5280   -0.0460 C   0  0  0  0  0  0  0  0  0  0  0  0
  -11.5450   33.1710    1.1650 C   0  0  0  0  0  0  0  0  0  0  0  0
  -11.3890   34.6660    1.1430 C   0  0  0  0  0  0  0  0  0  0  0  0
  -10.8630   32.5320    2.3330 C   0  0  0  0  0  0  0  0  0  0  0  0
  -12.8920   32.8620    1.1980 O   0  0  0  0  0  0  0  0  0  0  0  0
  1  2  2  0  0  0  0
  1  4  1  0  0  0  0
  1 16  1  0  0  0  0
  2  3  1  0  0  0  0
  3  5  2  0  0  0  0
  4  5  1  0  0  0  0
  4  8  1  1  0  0  0
  5  6  1  0  0  0  0
  6  7  2  0  0  0  0
  7  9  1  0  0  0  0
  8  9  2  0  0  0  0
  9 22  1  0  0  0  0
 10 11  1  0  0  0  0
 11 12  2  0  0  0  0
 11 13  1  0  0  0  0
 12 16  1  0  0  0  0
 13 14  2  0  0  0  0
 14 15  1  0  0  0  0
 15 17  1  0  0  0  0
 15 16  2  0  0  0  0
 17 18  1  0  0  0  0
 18 19  1  0  0  0  0
 19 20  1  0  0  0  0
 20 21  1  0  0  0  0
 22 23  3  0  0  0  0
 23 24  1  0  0  0  0
 24 27  1  0  0  0  0
 24 25  1  0  0  0  0
 24 26  1  0  0  0  0
M  END
>  <COMPND>
    UNNAMED

>  <AUTHOR>
    GENERATED BY OPEN BABEL 2.4.90

>  <MASTER>
        0    0    0    0    0    0    0    0   27    0   27    0

