__4idv_B_rec_4idv_13v_lig_min.pdb
 OpenBabel10191916423D

 27 29  0  0  1  0  0  0  0  0999 V2000
   -6.2500   30.2000   -3.3070 C   0  0  0  0  0  0  0  0  0  0  0  0
   -6.2030   29.6920   -4.5920 C   0  0  0  0  0  0  0  0  0  0  0  0
   -7.4290   29.7350   -5.1160 N   0  0  0  0  0  0  0  0  0  0  0  0
   -7.5670   30.5550   -3.0680 C   0  0  1  0  0  0  0  0  0  0  0  0
   -8.3090   30.2530   -4.2170 C   0  0  0  0  0  0  0  0  0  0  0  0
   -9.6720   30.4940   -4.2920 C   0  0  0  0  0  0  0  0  0  0  0  0
  -10.3390   31.0520   -3.2210 C   0  0  0  0  0  0  0  0  0  0  0  0
   -8.2700   31.1120   -1.9980 C   0  0  0  0  0  0  0  0  0  0  0  0
   -9.6390   31.3620   -2.0730 C   0  0  0  0  0  0  0  0  0  0  0  0
   -4.5090   32.1030    0.6910 N   0  0  0  0  0  0  0  0  0  0  0  0
   -4.2900   31.2960   -0.3590 C   0  0  0  0  0  0  0  0  0  0  0  0
   -5.2800   31.1670   -1.2380 N   0  0  0  0  0  0  0  0  0  0  0  0
   -3.1090   30.7250   -0.4090 N   0  0  0  0  0  0  0  0  0  0  0  0
   -2.9070   29.9050   -1.4670 C   0  0  0  0  0  0  0  0  0  0  0  0
   -3.8670   29.6850   -2.4860 C   0  0  0  0  0  0  0  0  0  0  0  0
   -5.1170   30.3580   -2.3140 C   0  0  0  0  0  0  0  0  0  0  0  0
   -3.6890   28.7930   -3.5620 O   0  0  0  0  0  0  0  0  0  0  0  0
   -2.7710   28.7720   -4.6260 C   0  0  0  0  0  0  0  0  0  0  0  0
   -3.1150   27.4880   -5.4030 C   0  0  0  0  0  0  0  0  0  0  0  0
   -3.7630   27.7040   -6.6490 O   0  0  0  0  0  0  0  0  0  0  0  0
   -5.0790   27.3020   -6.9750 C   0  0  0  0  0  0  0  0  0  0  0  0
  -10.2970   31.9130   -0.9770 C   0  0  0  0  0  0  0  0  0  0  0  0
  -10.8610   32.3990   -0.0120 C   0  0  0  0  0  0  0  0  0  0  0  0
  -11.5560   32.9990    1.1750 C   0  0  0  0  0  0  0  0  0  0  0  0
  -11.4380   34.4970    1.1960 C   0  0  0  0  0  0  0  0  0  0  0  0
  -10.9270   32.3490    2.3670 C   0  0  0  0  0  0  0  0  0  0  0  0
  -12.8940   32.6560    1.1210 O   0  0  0  0  0  0  0  0  0  0  0  0
  1  2  2  0  0  0  0
  1  4  1  0  0  0  0
  1 16  1  0  0  0  0
  2  3  1  0  0  0  0
  3  5  2  0  0  0  0
  4  5  1  0  0  0  0
  4  8  1  1  0  0  0
  5  6  1  0  0  0  0
  6  7  2  0  0  0  0
  7  9  1  0  0  0  0
  8  9  2  0  0  0  0
  9 22  1  0  0  0  0
 10 11  1  0  0  0  0
 11 12  2  0  0  0  0
 11 13  1  0  0  0  0
 12 16  1  0  0  0  0
 13 14  2  0  0  0  0
 14 15  1  0  0  0  0
 15 17  1  0  0  0  0
 15 16  2  0  0  0  0
 17 18  1  0  0  0  0
 18 19  1  0  0  0  0
 19 20  1  0  0  0  0
 20 21  1  0  0  0  0
 22 23  3  0  0  0  0
 23 24  1  0  0  0  0
 24 27  1  0  0  0  0
 24 25  1  0  0  0  0
 24 26  1  0  0  0  0
M  END
>  <COMPND>
    UNNAMED

>  <AUTHOR>
    GENERATED BY OPEN BABEL 2.4.90

>  <MASTER>
        0    0    0    0    0    0    0    0   27    0   27    0

