__4lfu_A_rec_4lfu_pg4_lig_min.pdb
 OpenBabel10201915073D

 13 12  0  0  0  0  0  0  0  0999 V2000
  -21.2800   34.5370  -45.9260 O   0  0  0  0  0  0  0  0  0  0  0  0
  -20.8460   34.3590  -44.5590 C   0  0  0  0  0  0  0  0  0  0  0  0
  -21.1770   33.0010  -43.9090 C   0  0  0  0  0  0  0  0  0  0  0  0
  -20.4440   31.9100  -44.5020 O   0  0  0  0  0  0  0  0  0  0  0  0
  -20.1540   30.7900  -43.6430 C   0  0  0  0  0  0  0  0  0  0  0  0
  -18.8450   28.6990  -43.8420 O   0  0  0  0  0  0  0  0  0  0  0  0
  -18.8370   30.1280  -44.0750 C   0  0  0  0  0  0  0  0  0  0  0  0
  -22.0110   35.7490  -46.1630 C   0  0  0  0  0  0  0  0  0  0  0  0
  -21.9450   36.1800  -47.6280 C   0  0  0  0  0  0  0  0  0  0  0  0
  -22.4680   37.5070  -47.7990 O   0  0  0  0  0  0  0  0  0  0  0  0
  -23.1340   37.6360  -49.0670 C   0  0  0  0  0  0  0  0  0  0  0  0
  -24.6540   37.5150  -48.9450 C   0  0  0  0  0  0  0  0  0  0  0  0
  -25.3200   38.3200  -49.9390 O   0  0  0  0  0  0  0  0  0  0  0  0
  1  8  1  0  0  0  0
  1  2  1  0  0  0  0
  2  3  1  0  0  0  0
  3  4  1  0  0  0  0
  4  5  1  0  0  0  0
  5  7  1  0  0  0  0
  6  7  1  0  0  0  0
  8  9  1  0  0  0  0
  9 10  1  0  0  0  0
 10 11  1  0  0  0  0
 11 12  1  0  0  0  0
 12 13  1  0  0  0  0
M  END
>  <COMPND>
    UNNAMED

>  <AUTHOR>
    GENERATED BY OPEN BABEL 2.4.90

>  <MASTER>
        0    0    0    0    0    0    0    0   13    0   13    0

