__4lgw_A_rec_4y15_482_lig_min.pdb
 OpenBabel10201915053D

 15 15  0  0  1  0  0  0  0  0999 V2000
  -27.0990   35.5610  -44.5420 C   0  0  0  0  0  0  0  0  0  0  0  0
  -27.5810   36.6250  -44.2060 O   0  0  0  0  0  0  0  0  0  0  0  0
  -26.9680   34.5840  -43.5100 N   0  0  0  0  0  0  0  0  0  0  0  0
  -26.4820   33.2590  -43.4840 C   0  0  1  0  0  0  0  0  0  0  0  0
  -27.5900   32.3270  -43.8980 C   0  0  0  0  0  0  0  0  0  0  0  0
  -26.8780   31.0810  -44.2990 C   0  0  0  0  0  0  0  0  0  0  0  0
  -25.4020   32.8610  -44.3940 C   0  0  0  0  0  0  0  0  0  0  0  0
  -24.4080   33.4900  -44.6910 O   0  0  0  0  0  0  0  0  0  0  0  0
  -25.7100   31.4910  -44.8680 O   0  0  0  0  0  0  0  0  0  0  0  0
  -26.7030   35.3610  -45.9910 C   0  0  0  0  0  0  0  0  0  0  0  0
  -25.6630   36.3670  -46.4700 C   0  0  0  0  0  0  0  0  0  0  0  0
  -25.8070   37.5690  -46.3430 O   0  0  0  0  0  0  0  0  0  0  0  0
  -24.4010   35.8590  -47.1300 C   0  0  0  0  0  0  0  0  0  0  0  0
  -22.0170   35.6390  -46.5210 C   0  0  0  0  0  0  0  0  0  0  0  0
  -23.2110   36.5690  -46.5260 C   0  0  0  0  0  0  0  0  0  0  0  0
  1 10  1  0  0  0  0
  1  2  2  0  0  0  0
  1  3  1  0  0  0  0
  4  3  1  6  0  0  0
  4  7  1  0  0  0  0
  4  5  1  0  0  0  0
  5  6  1  0  0  0  0
  6  9  1  0  0  0  0
  7  8  2  0  0  0  0
  7  9  1  0  0  0  0
 10 11  1  0  0  0  0
 11 13  1  0  0  0  0
 11 12  2  0  0  0  0
 13 15  1  0  0  0  0
 14 15  1  0  0  0  0
M  END
>  <COMPND>
    UNNAMED

>  <AUTHOR>
    GENERATED BY OPEN BABEL 2.4.90

>  <MASTER>
        0    0    0    0    0    0    0    0   15    0   15    0

