__1ybg_A_rec_1ybg_tav_lig_min.pdb
 OpenBabel10191920333D

 46 50  0  0  1  0  0  0  0  0999 V2000
   63.3310  -43.6080  121.8900 C   0  0  0  0  0  0  0  0  0  0  0  0
   62.9640  -44.5450  120.9500 C   0  0  0  0  0  0  0  0  0  0  0  0
   62.2460  -44.1600  119.8020 C   0  0  0  0  0  0  0  0  0  0  0  0
   61.8850  -42.8000  119.6160 C   0  0  0  0  0  0  0  0  0  0  0  0
   62.2560  -41.8310  120.5720 C   0  0  0  0  0  0  0  0  0  0  0  0
   63.0000  -42.2470  121.7020 C   0  0  0  0  0  0  0  0  0  0  0  0
   61.0960  -42.4420  118.3800 C   0  0  0  0  0  0  0  0  0  0  0  0
   61.7580  -41.7240  117.2960 N   0  0  0  0  0  0  0  0  0  0  0  0
   59.9170  -42.7580  118.2910 O   0  0  0  0  0  0  0  0  0  0  0  0
   62.6440  -40.5530  117.5410 C   0  0  0  0  0  0  0  0  0  0  0  0
   60.7640  -41.5050  116.1880 C   0  0  2  0  0  0  0  0  0  0  0  0
   61.4700  -41.7490  114.7880 C   0  0  0  0  0  0  0  0  0  0  0  0
   62.4500  -42.4820  114.6430 O   0  0  0  0  0  0  0  0  0  0  0  0
   60.9340  -41.0780  113.6610 O   0  0  0  0  0  0  0  0  0  0  0  0
   59.9560  -40.1120  116.3220 C   0  0  0  0  0  0  0  0  0  0  0  0
   58.3710  -40.1990  116.3910 C   0  0  0  0  0  0  0  0  0  0  0  0
   57.8040  -41.0500  117.0830 O   0  0  0  0  0  0  0  0  0  0  0  0
   57.6110  -39.2550  115.6750 O   0  0  0  0  0  0  0  0  0  0  0  0
   61.8440  -45.0950  118.7810 N   0  0  0  0  0  0  0  0  0  0  0  0
   61.5890  -46.7080  119.1450 S   0  0  0  0  0  0  0  0  0  0  0  0
   62.7200  -47.2570  119.8710 O   0  0  0  0  0  0  0  0  0  0  0  0
   61.1010  -47.3860  117.9530 O   0  0  0  0  0  0  0  0  0  0  0  0
   60.1830  -46.6060  120.3030 C   0  0  0  0  0  0  0  0  0  0  0  0
   59.0580  -45.8630  120.0000 C   0  0  0  0  0  0  0  0  0  0  0  0
   57.9610  -45.8120  120.9470 C   0  0  0  0  0  0  0  0  0  0  0  0
   58.0690  -46.5360  122.2010 C   0  0  0  0  0  0  0  0  0  0  0  0
   59.2530  -47.2830  122.4730 C   0  0  0  0  0  0  0  0  0  0  0  0
   60.2730  -47.3210  121.5620 C   0  0  0  0  0  0  0  0  0  0  0  0
   56.7540  -45.0640  120.6780 C   0  0  0  0  0  0  0  0  0  0  0  0
   56.9790  -46.4930  123.1490 C   0  0  0  0  0  0  0  0  0  0  0  0
   55.8430  -45.7730  122.8630 C   0  0  0  0  0  0  0  0  0  0  0  0
   55.7250  -45.0430  121.6030 C   0  0  0  0  0  0  0  0  0  0  0  0
   63.6180  -41.0270  122.4770 O   0  0  0  0  0  0  0  0  0  0  0  0
   64.4620  -39.6480  122.5990 S   0  0  0  0  0  0  0  0  0  0  0  0
   65.3170  -39.6990  123.7570 O   0  0  0  0  0  0  0  0  0  0  0  0
   63.5160  -38.5490  122.3320 O   0  0  0  0  0  0  0  0  0  0  0  0
   67.8350  -39.8880  116.5730 C   0  0  0  0  0  0  0  0  0  0  0  0
   68.0150  -40.6360  117.7100 C   0  0  0  0  0  0  0  0  0  0  0  0
   67.1750  -40.4200  118.8670 C   0  0  0  0  0  0  0  0  0  0  0  0
   66.1380  -39.4010  118.8080 C   0  0  0  0  0  0  0  0  0  0  0  0
   65.9750  -38.6350  117.5930 C   0  0  0  0  0  0  0  0  0  0  0  0
   66.7950  -38.8730  116.5140 C   0  0  0  0  0  0  0  0  0  0  0  0
   67.3420  -41.1830  120.0800 C   0  0  0  0  0  0  0  0  0  0  0  0
   65.2960  -39.1770  119.9750 C   0  0  0  0  0  0  0  0  0  0  0  0
   65.4890  -39.9360  121.1250 C   0  0  0  0  0  0  0  0  0  0  0  0
   66.5320  -40.9540  121.1780 C   0  0  0  0  0  0  0  0  0  0  0  0
  1  2  2  0  0  0  0
  1  6  1  0  0  0  0
  2  3  1  0  0  0  0
  3 19  1  0  0  0  0
  3  4  2  0  0  0  0
  4  7  1  0  0  0  0
  4  5  1  0  0  0  0
  5  6  2  0  0  0  0
  6 33  1  0  0  0  0
  7  8  1  0  0  0  0
  7  9  2  0  0  0  0
  8 11  1  0  0  0  0
  8 10  1  0  0  0  0
 11 12  1  0  0  0  0
 11 15  1  6  0  0  0
 12 14  2  0  0  0  0
 12 13  1  0  0  0  0
 15 16  1  0  0  0  0
 16 18  2  0  0  0  0
 16 17  1  0  0  0  0
 19 20  1  0  0  0  0
 20 22  2  0  0  0  0
 20 21  2  0  0  0  0
 20 23  1  0  0  0  0
 23 24  2  0  0  0  0
 23 28  1  0  0  0  0
 24 25  1  0  0  0  0
 25 29  2  0  0  0  0
 25 26  1  0  0  0  0
 26 27  1  0  0  0  0
 26 30  2  0  0  0  0
 27 28  2  0  0  0  0
 29 32  1  0  0  0  0
 30 31  1  0  0  0  0
 31 32  2  0  0  0  0
 33 34  1  0  0  0  0
 34 45  1  0  0  0  0
 34 36  1  0  0  0  0
 34 35  1  0  0  0  0
 37 42  2  0  0  0  0
 37 38  1  0  0  0  0
 38 39  2  0  0  0  0
 39 40  1  0  0  0  0
 39 43  1  0  0  0  0
 40 41  2  0  0  0  0
 40 44  1  0  0  0  0
 41 42  1  0  0  0  0
 43 46  2  0  0  0  0
 44 45  2  0  0  0  0
 45 46  1  0  0  0  0
M  END
>  <COMPND>
    UNNAMED

>  <AUTHOR>
    GENERATED BY OPEN BABEL 2.4.90

>  <MASTER>
        0    0    0    0    0    0    0    0   46    0   46    0

