__2z2c_D_rec_3kqj_ud1_lig_min.pdb
 OpenBabel10191920323D

 39 41  0  0  1  0  0  0  0  0999 V2000
   61.4260  -44.7220  114.5720 P   0  0  2  0  0  0  0  0  0  0  0  0
   62.5710  -44.1040  113.9490 O   0  0  0  0  0  0  0  0  0  0  0  0
   61.6850  -46.1470  114.8730 O   0  0  0  0  0  0  0  0  0  0  0  0
   60.2080  -44.5800  113.6120 O   0  0  0  0  0  0  0  0  0  0  0  0
   60.3700  -44.0460  112.2960 C   0  0  0  0  0  0  0  0  0  0  0  0
   58.2820  -46.6750  111.5890 C   0  0  1  0  0  0  0  0  0  0  0  0
   57.5160  -45.6450  112.3960 C   0  0  2  0  0  0  0  0  0  0  0  0
   56.1200  -46.0190  112.8440 O   0  0  0  0  0  0  0  0  0  0  0  0
   57.8280  -44.3370  111.6410 C   0  0  1  0  0  0  0  0  0  0  0  0
   59.3350  -44.6080  111.2820 C   0  0  2  0  0  0  0  0  0  0  0  0
   59.5080  -46.0420  111.2750 O   0  0  0  0  0  0  0  0  0  0  0  0
   56.8280  -44.2850  110.5470 O   0  0  0  0  0  0  0  0  0  0  0  0
   58.6030  -47.9210  112.3500 N   0  0  0  0  0  0  0  0  0  0  0  0
   57.6870  -48.9830  112.4030 C   0  0  0  0  0  0  0  0  0  0  0  0
   57.9830  -50.0700  113.1130 N   0  0  0  0  0  0  0  0  0  0  0  0
   59.1250  -50.2660  113.8160 C   0  0  0  0  0  0  0  0  0  0  0  0
   60.0860  -49.1690  113.7660 C   0  0  0  0  0  0  0  0  0  0  0  0
   59.8040  -48.0300  113.0470 C   0  0  0  0  0  0  0  0  0  0  0  0
   56.5860  -48.9340  111.8080 O   0  0  0  0  0  0  0  0  0  0  0  0
   59.3070  -51.2780  114.4340 O   0  0  0  0  0  0  0  0  0  0  0  0
   61.2600  -43.8490  115.8230 O   0  0  0  0  0  0  0  0  0  0  0  0
   61.8560  -44.0610  117.2610 P   0  0  2  0  0  0  0  0  0  0  0  0
   63.0510  -44.8040  117.1710 O   0  0  0  0  0  0  0  0  0  0  0  0
   60.8810  -44.6050  118.2330 O   0  0  0  0  0  0  0  0  0  0  0  0
   62.2920  -42.6630  117.7960 O   0  0  0  0  0  0  0  0  0  0  0  0
   63.5600  -42.0700  117.4650 C   0  0  2  0  0  0  0  0  0  0  0  0
   63.7300  -40.7980  118.3190 C   0  0  1  0  0  0  0  0  0  0  0  0
   62.6510  -39.8140  117.9600 C   0  0  2  0  0  0  0  0  0  0  0  0
   62.7970  -39.4850  116.4720 C   0  0  1  0  0  0  0  0  0  0  0  0
   62.6440  -40.7760  115.6380 C   0  0  2  0  0  0  0  0  0  0  0  0
   62.8470  -38.6100  118.7290 O   0  0  0  0  0  0  0  0  0  0  0  0
   61.7980  -38.5760  115.8810 O   0  0  0  0  0  0  0  0  0  0  0  0
   63.6630  -41.7200  116.0810 O   0  0  0  0  0  0  0  0  0  0  0  0
   64.5250  -41.6480  120.4820 C   0  0  0  0  0  0  0  0  0  0  0  0
   64.1170  -41.9180  121.9270 C   0  0  0  0  0  0  0  0  0  0  0  0
   63.5730  -41.1210  119.7370 N   0  0  0  0  0  0  0  0  0  0  0  0
   65.6180  -41.8860  119.9970 O   0  0  0  0  0  0  0  0  0  0  0  0
   62.8180  -40.5190  114.1360 C   0  0  0  0  0  0  0  0  0  0  0  0
   63.7180  -39.3580  113.7930 O   0  0  0  0  0  0  0  0  0  0  0  0
  1  2  2  6  0  0  0
  1  4  1  0  0  0  0
  1  3  1  0  0  0  0
  1 21  1  0  0  0  0
  4  5  1  0  0  0  0
  6 11  1  0  0  0  0
  6 13  1  1  0  0  0
  6  7  1  0  0  0  0
  7  9  1  0  0  0  0
  7  8  1  6  0  0  0
  9 12  1  6  0  0  0
  9 10  1  0  0  0  0
 10  5  1  1  0  0  0
 10 11  1  0  0  0  0
 13 14  1  0  0  0  0
 13 18  1  0  0  0  0
 14 19  2  0  0  0  0
 14 15  1  0  0  0  0
 15 16  1  0  0  0  0
 16 17  1  0  0  0  0
 16 20  2  0  0  0  0
 17 18  2  0  0  0  0
 21 22  1  0  0  0  0
 22 23  2  6  0  0  0
 22 24  1  0  0  0  0
 22 25  1  0  0  0  0
 26 25  1  6  0  0  0
 26 33  1  0  0  0  0
 26 27  1  0  0  0  0
 27 28  1  0  0  0  0
 27 36  1  1  0  0  0
 28 29  1  0  0  0  0
 28 31  1  1  0  0  0
 29 30  1  0  0  0  0
 29 32  1  6  0  0  0
 30 38  1  6  0  0  0
 30 33  1  0  0  0  0
 34 36  1  0  0  0  0
 34 37  2  0  0  0  0
 34 35  1  0  0  0  0
 38 39  1  0  0  0  0
M  END
>  <COMPND>
    UNNAMED

>  <AUTHOR>
    GENERATED BY OPEN BABEL 2.4.90

>  <MASTER>
        0    0    0    0    0    0    0    0   39    0   39    0

