__3su9_A_rec_1ryw_epu_lig_min.pdb
 OpenBabel10191920273D

 44 46  0  0  1  0  0  0  0  0999 V2000
   61.8510  -44.0040  117.0060 P   0  0  2  0  0  0  0  0  0  0  0  0
   63.1490  -44.5790  117.0820 O   0  0  0  0  0  0  0  0  0  0  0  0
   60.9010  -44.7470  117.8130 O   0  0  0  0  0  0  0  0  0  0  0  0
   61.3790  -43.8620  115.5200 O   0  0  0  0  0  0  0  0  0  0  0  0
   61.7770  -44.6750  114.3130 P   0  0  1  0  0  0  0  0  0  0  0  0
   62.7360  -43.7150  113.7570 O   0  0  0  0  0  0  0  0  0  0  0  0
   62.4660  -45.9540  114.6330 O   0  0  0  0  0  0  0  0  0  0  0  0
   60.6530  -44.9300  113.2630 O   0  0  0  0  0  0  0  0  0  0  0  0
   60.4820  -44.1980  112.0230 C   0  0  0  0  0  0  0  0  0  0  0  0
   58.2100  -46.7040  111.6280 C   0  0  1  0  0  0  0  0  0  0  0  0
   57.6470  -45.6200  112.4520 C   0  0  2  0  0  0  0  0  0  0  0  0
   56.2910  -45.8660  113.0800 O   0  0  0  0  0  0  0  0  0  0  0  0
   57.8310  -44.3780  111.6100 C   0  0  1  0  0  0  0  0  0  0  0  0
   59.3070  -44.7220  111.1230 C   0  0  2  0  0  0  0  0  0  0  0  0
   59.4230  -46.1850  111.1400 O   0  0  0  0  0  0  0  0  0  0  0  0
   56.7030  -44.4170  110.6680 O   0  0  0  0  0  0  0  0  0  0  0  0
   58.5590  -48.0090  112.3670 N   0  0  0  0  0  0  0  0  0  0  0  0
   57.6860  -49.1240  112.3670 C   0  0  0  0  0  0  0  0  0  0  0  0
   58.0650  -50.2510  113.0460 N   0  0  0  0  0  0  0  0  0  0  0  0
   59.2480  -50.4460  113.7620 C   0  0  0  0  0  0  0  0  0  0  0  0
   60.1660  -49.2880  113.7770 C   0  0  0  0  0  0  0  0  0  0  0  0
   59.8000  -48.1180  113.0910 C   0  0  0  0  0  0  0  0  0  0  0  0
   56.6150  -49.1090  111.7900 O   0  0  0  0  0  0  0  0  0  0  0  0
   59.4810  -51.5150  114.3370 O   0  0  0  0  0  0  0  0  0  0  0  0
   61.9930  -42.5920  117.6300 O   0  0  0  0  0  0  0  0  0  0  0  0
   63.2520  -41.8450  117.5560 C   0  0  2  0  0  0  0  0  0  0  0  0
   63.1440  -40.5510  118.4480 C   0  0  1  0  0  0  0  0  0  0  0  0
   62.0090  -39.6500  117.8950 C   0  0  2  0  0  0  0  0  0  0  0  0
   62.4220  -39.2680  116.4050 C   0  0  1  0  0  0  0  0  0  0  0  0
   62.5340  -40.5350  115.5300 C   0  0  2  0  0  0  0  0  0  0  0  0
   61.4350  -38.4040  115.7170 O   0  0  0  0  0  0  0  0  0  0  0  0
   63.5410  -41.4190  116.1840 O   0  0  0  0  0  0  0  0  0  0  0  0
   63.7530  -41.4550  120.7250 C   0  0  0  0  0  0  0  0  0  0  0  0
   63.1650  -41.7570  122.0790 C   0  0  0  0  0  0  0  0  0  0  0  0
   62.8550  -40.9570  119.8550 N   0  0  0  0  0  0  0  0  0  0  0  0
   64.9460  -41.6270  120.4120 O   0  0  0  0  0  0  0  0  0  0  0  0
   62.9860  -40.1680  114.1000 C   0  0  0  0  0  0  0  0  0  0  0  0
   64.4160  -39.6810  114.0020 O   0  0  0  0  0  0  0  0  0  0  0  0
   61.9420  -38.4930  118.7360 O   0  0  0  0  0  0  0  0  0  0  0  0
   60.7760  -38.0570  119.3340 C   0  0  2  0  0  0  0  0  0  0  0  0
   59.5150  -38.4930  118.9860 C   0  0  0  0  0  0  0  0  0  0  0  0
   61.0170  -36.9730  120.3820 C   0  0  0  0  0  0  0  0  0  0  0  0
   60.1020  -36.1460  120.6450 O   0  0  0  0  0  0  0  0  0  0  0  0
   62.1570  -36.9490  120.9080 O   0  0  0  0  0  0  0  0  0  0  0  0
  1  4  1  0  0  0  0
  1  2  2  1  0  0  0
  1  3  1  0  0  0  0
  1 25  1  0  0  0  0
  4  5  1  0  0  0  0
  5  6  2  6  0  0  0
  5  8  1  0  0  0  0
  5  7  1  0  0  0  0
  8  9  1  0  0  0  0
 10 15  1  0  0  0  0
 10 17  1  1  0  0  0
 10 11  1  0  0  0  0
 11 13  1  0  0  0  0
 11 12  1  6  0  0  0
 13 16  1  6  0  0  0
 13 14  1  0  0  0  0
 14  9  1  1  0  0  0
 14 15  1  0  0  0  0
 17 18  1  0  0  0  0
 17 22  1  0  0  0  0
 18 23  2  0  0  0  0
 18 19  1  0  0  0  0
 19 20  1  0  0  0  0
 20 21  1  0  0  0  0
 20 24  2  0  0  0  0
 21 22  2  0  0  0  0
 26 25  1  6  0  0  0
 26 32  1  0  0  0  0
 26 27  1  0  0  0  0
 27 28  1  0  0  0  0
 27 35  1  1  0  0  0
 28 29  1  0  0  0  0
 28 39  1  1  0  0  0
 29 30  1  0  0  0  0
 29 31  1  6  0  0  0
 30 37  1  6  0  0  0
 30 32  1  0  0  0  0
 33 35  1  0  0  0  0
 33 36  2  0  0  0  0
 33 34  1  0  0  0  0
 37 38  1  0  0  0  0
 39 40  1  0  0  0  0
 40 41  1  6  0  0  0
 40 42  1  0  0  0  0
 42 43  2  0  0  0  0
 42 44  1  0  0  0  0
M  END
>  <COMPND>
    UNNAMED

>  <AUTHOR>
    GENERATED BY OPEN BABEL 2.4.90

>  <MASTER>
        0    0    0    0    0    0    0    0   44    0   44    0

