__4e7c_A_rec_4e7f_udp_lig_min.pdb
 OpenBabel10191920323D

 25 26  0  0  1  0  0  0  0  0999 V2000
   58.0660  -46.8700  113.0370 C   0  0  1  0  0  0  0  0  0  0  0  0
   57.2130  -45.8900  113.8190 C   0  0  2  0  0  0  0  0  0  0  0  0
   56.0730  -45.3960  113.0710 O   0  0  0  0  0  0  0  0  0  0  0  0
   58.1300  -44.7440  114.0620 C   0  0  1  0  0  0  0  0  0  0  0  0
   58.9790  -44.7100  112.7740 C   0  0  2  0  0  0  0  0  0  0  0  0
   59.0620  -46.0860  112.3270 O   0  0  0  0  0  0  0  0  0  0  0  0
   57.3880  -43.5970  114.4570 O   0  0  0  0  0  0  0  0  0  0  0  0
   58.7340  -47.9370  113.8890 N   0  0  0  0  0  0  0  0  0  0  0  0
   58.1820  -49.2550  113.8550 C   0  0  0  0  0  0  0  0  0  0  0  0
   58.7190  -50.2660  114.5690 N   0  0  0  0  0  0  0  0  0  0  0  0
   59.8000  -50.1040  115.3560 C   0  0  0  0  0  0  0  0  0  0  0  0
   60.3860  -48.8160  115.4320 C   0  0  0  0  0  0  0  0  0  0  0  0
   59.8330  -47.7410  114.6830 C   0  0  0  0  0  0  0  0  0  0  0  0
   57.1980  -49.4490  113.1490 O   0  0  0  0  0  0  0  0  0  0  0  0
   60.2530  -51.0450  115.9780 O   0  0  0  0  0  0  0  0  0  0  0  0
   60.3720  -44.0970  112.9290 C   0  0  0  0  0  0  0  0  0  0  0  0
   61.1640  -44.9070  113.7650 O   0  0  0  0  0  0  0  0  0  0  0  0
   61.9920  -44.3490  114.9450 P   0  0  1  0  0  0  0  0  0  0  0  0
   62.9270  -45.3460  115.4760 O   0  0  0  0  0  0  0  0  0  0  0  0
   62.5120  -43.0260  114.4870 O   0  0  0  0  0  0  0  0  0  0  0  0
   60.9010  -44.0430  116.0740 O   0  0  0  0  0  0  0  0  0  0  0  0
   60.7850  -44.5430  117.5910 P   0  0  0  0  0  0  0  0  0  0  0  0
   62.0740  -43.9900  118.1630 O   0  0  0  0  0  0  0  0  0  0  0  0
   59.5620  -43.9680  118.2450 O   0  0  0  0  0  0  0  0  0  0  0  0
   60.6690  -46.0350  117.5690 O   0  0  0  0  0  0  0  0  0  0  0  0
  1  6  1  0  0  0  0
  1  2  1  0  0  0  0
  1  8  1  1  0  0  0
  2  3  1  6  0  0  0
  2  4  1  0  0  0  0
  4  5  1  0  0  0  0
  4  7  1  6  0  0  0
  5  6  1  0  0  0  0
  5 16  1  1  0  0  0
  8  9  1  0  0  0  0
  8 13  1  0  0  0  0
  9 14  2  0  0  0  0
  9 10  1  0  0  0  0
 10 11  1  0  0  0  0
 11 12  1  0  0  0  0
 11 15  2  0  0  0  0
 12 13  2  0  0  0  0
 16 17  1  0  0  0  0
 17 18  1  0  0  0  0
 18 20  2  6  0  0  0
 18 21  1  0  0  0  0
 18 19  1  0  0  0  0
 21 22  1  0  0  0  0
 22 25  2  0  0  0  0
 22 24  1  0  0  0  0
 22 23  1  0  0  0  0
M  END
>  <COMPND>
    UNNAMED

>  <AUTHOR>
    GENERATED BY OPEN BABEL 2.4.90

>  <MASTER>
        0    0    0    0    0    0    0    0   25    0   25    0

