__4e7f_A_rec_4e7d_udp_lig_min.pdb
 OpenBabel10191920143D

 25 26  0  0  1  0  0  0  0  0999 V2000
   58.5600  -47.0700  111.6500 C   0  0  1  0  0  0  0  0  0  0  0  0
   57.5710  -46.0790  112.2300 C   0  0  2  0  0  0  0  0  0  0  0  0
   56.7190  -45.4550  111.2500 O   0  0  0  0  0  0  0  0  0  0  0  0
   58.4380  -45.0350  112.8140 C   0  0  1  0  0  0  0  0  0  0  0  0
   59.5940  -44.9630  111.8010 C   0  0  2  0  0  0  0  0  0  0  0  0
   59.7440  -46.3140  111.3040 O   0  0  0  0  0  0  0  0  0  0  0  0
   57.6660  -43.8800  113.1300 O   0  0  0  0  0  0  0  0  0  0  0  0
   58.8880  -48.1780  112.6140 N   0  0  0  0  0  0  0  0  0  0  0  0
   58.1500  -49.3930  112.5130 C   0  0  0  0  0  0  0  0  0  0  0  0
   58.3800  -50.4280  113.3410 N   0  0  0  0  0  0  0  0  0  0  0  0
   59.3130  -50.3830  114.3070 C   0  0  0  0  0  0  0  0  0  0  0  0
   60.0770  -49.2060  114.4530 C   0  0  0  0  0  0  0  0  0  0  0  0
   59.8460  -48.1100  113.5910 C   0  0  0  0  0  0  0  0  0  0  0  0
   57.2890  -49.4800  111.6490 O   0  0  0  0  0  0  0  0  0  0  0  0
   59.4860  -51.3410  115.0330 O   0  0  0  0  0  0  0  0  0  0  0  0
   60.9260  -44.3990  112.3210 C   0  0  0  0  0  0  0  0  0  0  0  0
   61.5910  -45.2990  113.1840 O   0  0  0  0  0  0  0  0  0  0  0  0
   62.3060  -44.8390  114.4870 P   0  0  1  0  0  0  0  0  0  0  0  0
   62.9770  -45.9320  115.1510 O   0  0  0  0  0  0  0  0  0  0  0  0
   63.1080  -43.6550  114.1120 O   0  0  0  0  0  0  0  0  0  0  0  0
   61.1120  -44.3120  115.4410 O   0  0  0  0  0  0  0  0  0  0  0  0
   60.2570  -45.0150  116.6270 P   0  0  0  0  0  0  0  0  0  0  0  0
   61.3120  -45.8620  117.2950 O   0  0  0  0  0  0  0  0  0  0  0  0
   59.6870  -43.9850  117.5410 O   0  0  0  0  0  0  0  0  0  0  0  0
   59.1370  -45.7610  115.9960 O   0  0  0  0  0  0  0  0  0  0  0  0
  1  6  1  0  0  0  0
  1  2  1  0  0  0  0
  1  8  1  1  0  0  0
  2  3  1  6  0  0  0
  2  4  1  0  0  0  0
  4  5  1  0  0  0  0
  4  7  1  6  0  0  0
  5  6  1  0  0  0  0
  5 16  1  1  0  0  0
  8  9  1  0  0  0  0
  8 13  1  0  0  0  0
  9 14  2  0  0  0  0
  9 10  1  0  0  0  0
 10 11  1  0  0  0  0
 11 12  1  0  0  0  0
 11 15  2  0  0  0  0
 12 13  2  0  0  0  0
 16 17  1  0  0  0  0
 17 18  1  0  0  0  0
 18 20  2  6  0  0  0
 18 19  1  0  0  0  0
 18 21  1  0  0  0  0
 21 22  1  0  0  0  0
 22 25  2  0  0  0  0
 22 24  1  0  0  0  0
 22 23  1  0  0  0  0
M  END
>  <COMPND>
    UNNAMED

>  <AUTHOR>
    GENERATED BY OPEN BABEL 2.4.90

>  <MASTER>
        0    0    0    0    0    0    0    0   25    0   25    0

