__3kvw_A_rec_3kvw_irb_lig_min.pdb
 OpenBabel10181920123D

 25 28  0  0  1  0  0  0  0  0999 V2000
   40.5020   13.8920   16.4620 C   0  0  0  0  0  0  0  0  0  0  0  0
   40.6600   13.6800   15.1000 C   0  0  0  0  0  0  0  0  0  0  0  0
   42.7620   13.0780   16.8720 C   0  0  0  0  0  0  0  0  0  0  0  0
   42.1990   12.8900   13.3630 N   0  0  0  0  0  0  0  0  0  0  0  0
   41.5390   13.5960   17.3390 C   0  0  0  0  0  0  0  0  0  0  0  0
   43.4270   12.3290   13.3370 C   0  0  0  0  0  0  0  0  0  0  0  0
   43.9100   12.4080   14.6540 C   0  0  0  0  0  0  0  0  0  0  0  0
   41.8430   13.1570   14.6120 C   0  0  1  0  0  0  0  0  0  0  0  0
   42.8970   12.8670   15.4820 C   0  0  0  0  0  0  0  0  0  0  0  0
   42.6350   13.3070   10.8660 O   0  0  0  0  0  0  0  0  0  0  0  0
   47.0170   12.0800    7.9440 Br  0  0  0  0  0  0  0  0  0  0  0  0
   47.6360   10.5360   11.8650 C   0  0  0  0  0  0  0  0  0  0  0  0
   47.8310   10.8640   10.5060 C   0  0  0  0  0  0  0  0  0  0  0  0
   46.4560   10.9160   12.5570 C   0  0  0  0  0  0  0  0  0  0  0  0
   44.6360   12.6030   10.0100 N   0  0  0  0  0  0  0  0  0  0  0  0
   46.8310   11.5550    9.8050 C   0  0  0  0  0  0  0  0  0  0  0  0
   43.7420   12.7510   10.9900 C   0  0  0  0  0  0  0  0  0  0  0  0
   44.1690   12.1090   12.1650 C   0  0  1  0  0  0  0  0  0  0  0  0
   45.4720   11.6420   11.8750 C   0  0  0  0  0  0  0  0  0  0  0  0
   45.6820   11.9400   10.4890 C   0  0  0  0  0  0  0  0  0  0  0  0
   42.0770   13.4760   19.6720 O   0  0  0  0  0  0  0  0  0  0  0  0
   40.5050   14.9300   18.9750 O   0  0  0  0  0  0  0  0  0  0  0  0
   41.3070   13.9550   18.8040 C   0  0  0  0  0  0  0  0  0  0  0  0
   45.1820   10.8380   15.7450 O   0  0  0  0  0  0  0  0  0  0  0  0
   45.1060   12.0240   15.1040 N   0  0  0  0  0  0  0  0  0  0  0  0
  1  2  2  0  0  0  0
  1  5  1  0  0  0  0
  3  9  1  0  0  0  0
  3  5  2  0  0  0  0
  4  6  2  0  0  0  0
  4  8  1  0  0  0  0
  5 23  1  0  0  0  0
  6  7  1  0  0  0  0
  7 25  1  0  0  0  0
  7  9  2  0  0  0  0
  8  2  1  6  0  0  0
  8  9  1  0  0  0  0
 10 17  2  0  0  0  0
 11 16  1  0  0  0  0
 12 13  2  0  0  0  0
 12 14  1  0  0  0  0
 13 16  1  0  0  0  0
 14 19  2  0  0  0  0
 15 20  1  0  0  0  0
 15 17  1  0  0  0  0
 16 20  2  0  0  0  0
 17 18  1  0  0  0  0
 18  6  1  1  0  0  0
 18 19  1  0  0  0  0
 19 20  1  0  0  0  0
 21 23  2  0  0  0  0
 22 23  1  0  0  0  0
 24 25  1  0  0  0  0
M  END
>  <COMPND>
    UNNAMED

>  <AUTHOR>
    GENERATED BY OPEN BABEL 2.4.90

>  <MASTER>
        0    0    0    0    0    0    0    0   25    0   25    0

