__5lxc_A_rec_5lxc_7aa_lig_min.pdb
 OpenBabel10181920163D

 26 29  0  0  1  0  0  0  0  0999 V2000
   42.4400   13.2540   18.7290 C   0  0  0  0  0  0  0  0  0  0  0  0
   43.2680   12.8190   17.6710 C   0  0  0  0  0  0  0  0  0  0  0  0
   44.6320   12.4650   17.9560 C   0  0  0  0  0  0  0  0  0  0  0  0
   45.1000   12.5420   19.2380 N   0  0  0  0  0  0  0  0  0  0  0  0
   42.8690   13.2970   19.9960 N   0  0  0  0  0  0  0  0  0  0  0  0
   44.2100   12.9480   20.2560 C   0  0  0  0  0  0  0  0  0  0  0  0
   41.1400   13.5890   18.4680 C   0  0  0  0  0  0  0  0  0  0  0  0
   40.7350   13.4930   17.1330 C   0  0  0  0  0  0  0  0  0  0  0  0
   41.5080   13.1130   16.1610 C   0  0  0  0  0  0  0  0  0  0  0  0
   41.1860   13.0680   14.8330 N   0  0  0  0  0  0  0  0  0  0  0  0
   42.7760   12.7660   16.4420 C   0  0  0  0  0  0  0  0  0  0  0  0
   43.4780   12.3090   15.0380 S   0  0  0  0  0  0  0  0  0  0  0  0
   42.1920   12.6250   14.1140 C   0  0  0  0  0  0  0  0  0  0  0  0
   42.1420   12.4640   12.8110 C   0  0  1  0  0  0  0  0  0  0  0  0
   41.2460   13.2590   12.1790 N   0  0  0  0  0  0  0  0  0  0  0  0
   43.1350   11.7230   12.2730 O   0  0  0  0  0  0  0  0  0  0  0  0
   43.8100   12.4660   11.1140 C   0  0  0  0  0  0  0  0  0  0  0  0
   45.4250   12.1080   16.9240 N   0  0  0  0  0  0  0  0  0  0  0  0
   47.0310    9.8710   18.2020 Cl  0  0  0  0  0  0  0  0  0  0  0  0
   47.6030   11.2910   17.4880 C   0  0  0  0  0  0  0  0  0  0  0  0
   48.9990   11.4450   17.4660 C   0  0  0  0  0  0  0  0  0  0  0  0
   49.5680   12.5650   16.8980 C   0  0  0  0  0  0  0  0  0  0  0  0
   51.2620   12.6670   16.8590 Cl  0  0  0  0  0  0  0  0  0  0  0  0
   48.7540   13.5650   16.3290 C   0  0  0  0  0  0  0  0  0  0  0  0
   47.3730   13.3990   16.3360 C   0  0  0  0  0  0  0  0  0  0  0  0
   46.7680   12.2940   16.9540 C   0  0  0  0  0  0  0  0  0  0  0  0
  1  2  2  0  0  0  0
  1  7  1  0  0  0  0
  1  5  1  0  0  0  0
  2 11  1  0  0  0  0
  2  3  1  0  0  0  0
  3 18  1  0  0  0  0
  3  4  2  0  0  0  0
  4  6  1  0  0  0  0
  5  6  2  0  0  0  0
  7  8  2  0  0  0  0
  8  9  1  0  0  0  0
  9 10  1  0  0  0  0
  9 11  2  0  0  0  0
 10 13  2  0  0  0  0
 11 12  1  0  0  0  0
 12 13  1  0  0  0  0
 13 14  1  0  0  0  0
 14 15  1  6  0  0  0
 14 16  1  0  0  0  0
 16 17  1  0  0  0  0
 18 26  1  0  0  0  0
 19 20  1  0  0  0  0
 20 26  2  0  0  0  0
 20 21  1  0  0  0  0
 21 22  2  0  0  0  0
 22 24  1  0  0  0  0
 22 23  1  0  0  0  0
 24 25  2  0  0  0  0
 25 26  1  0  0  0  0
M  END
>  <COMPND>
    UNNAMED

>  <AUTHOR>
    GENERATED BY OPEN BABEL 2.4.90

>  <MASTER>
        0    0    0    0    0    0    0    0   26    0   26    0

