__5lxc_A_rec_5lxc_7aa_lig_docked.pdb
 OpenBabel10181920193D

 26 29  0  0  1  0  0  0  0  0999 V2000
   42.4810   13.2090   18.7200 C   0  0  0  0  0  0  0  0  0  0  0  0
   43.3210   12.7970   17.6620 C   0  0  0  0  0  0  0  0  0  0  0  0
   44.6910   12.4710   17.9470 C   0  0  0  0  0  0  0  0  0  0  0  0
   45.1550   12.5500   19.2300 N   0  0  0  0  0  0  0  0  0  0  0  0
   42.9070   13.2540   19.9880 N   0  0  0  0  0  0  0  0  0  0  0  0
   44.2550   12.9320   20.2490 C   0  0  0  0  0  0  0  0  0  0  0  0
   41.1750   13.5180   18.4590 C   0  0  0  0  0  0  0  0  0  0  0  0
   40.7750   13.4210   17.1220 C   0  0  0  0  0  0  0  0  0  0  0  0
   41.5570   13.0620   16.1500 C   0  0  0  0  0  0  0  0  0  0  0  0
   41.2380   13.0180   14.8210 N   0  0  0  0  0  0  0  0  0  0  0  0
   42.8320   12.7400   16.4320 C   0  0  0  0  0  0  0  0  0  0  0  0
   43.5450   12.3060   15.0260 S   0  0  0  0  0  0  0  0  0  0  0  0
   42.2550   12.6000   14.1020 C   0  0  0  0  0  0  0  0  0  0  0  0
   42.2110   12.4450   12.7980 C   0  0  1  0  0  0  0  0  0  0  0  0
   41.3100   13.2350   12.1660 N   0  0  0  0  0  0  0  0  0  0  0  0
   43.2120   11.7150   12.2590 O   0  0  0  0  0  0  0  0  0  0  0  0
   43.8180   12.4250   11.0420 C   0  0  0  0  0  0  0  0  0  0  0  0
   45.4930   12.1350   16.9140 N   0  0  0  0  0  0  0  0  0  0  0  0
   47.0660    9.8650   18.1730 Cl  0  0  0  0  0  0  0  0  0  0  0  0
   47.6580   11.2930   17.4910 C   0  0  0  0  0  0  0  0  0  0  0  0
   49.0550   11.4370   17.4890 C   0  0  0  0  0  0  0  0  0  0  0  0
   49.6390   12.5620   16.9480 C   0  0  0  0  0  0  0  0  0  0  0  0
   51.3340   12.6530   16.9320 Cl  0  0  0  0  0  0  0  0  0  0  0  0
   48.8400   13.5780   16.3870 C   0  0  0  0  0  0  0  0  0  0  0  0
   47.4570   13.4220   16.3740 C   0  0  0  0  0  0  0  0  0  0  0  0
   46.8370   12.3110   16.9650 C   0  0  0  0  0  0  0  0  0  0  0  0
  1  2  2  0  0  0  0
  1  7  1  0  0  0  0
  1  5  1  0  0  0  0
  2 11  1  0  0  0  0
  2  3  1  0  0  0  0
  3 18  1  0  0  0  0
  3  4  2  0  0  0  0
  4  6  1  0  0  0  0
  5  6  2  0  0  0  0
  7  8  2  0  0  0  0
  8  9  1  0  0  0  0
  9 10  1  0  0  0  0
  9 11  2  0  0  0  0
 10 13  2  0  0  0  0
 11 12  1  0  0  0  0
 12 13  1  0  0  0  0
 13 14  1  0  0  0  0
 14 15  1  6  0  0  0
 14 16  1  0  0  0  0
 16 17  1  0  0  0  0
 18 26  1  0  0  0  0
 19 20  1  0  0  0  0
 20 26  2  0  0  0  0
 20 21  1  0  0  0  0
 21 22  2  0  0  0  0
 22 24  1  0  0  0  0
 22 23  1  0  0  0  0
 24 25  2  0  0  0  0
 25 26  1  0  0  0  0
M  END
>  <MODEL>
       1

>  <COMPND>
    UNNAMED

>  <AUTHOR>
    GENERATED BY OPEN BABEL 2.4.90

>  <MASTER>
        0    0    0    0    0    0    0    0   26    0   26    0

