__5lxc_A_rec_5lxd_7a7_lig_docked.pdb
 OpenBabel10181920193D

 27 30  0  0  1  0  0  0  0  0999 V2000
   42.3080   12.5440   18.0270 C   0  0  0  0  0  0  0  0  0  0  0  0
   43.3700   12.4220   17.1310 C   0  0  0  0  0  0  0  0  0  0  0  0
   44.6830   12.3010   17.6170 C   0  0  0  0  0  0  0  0  0  0  0  0
   44.8760   12.2890   18.9490 N   0  0  0  0  0  0  0  0  0  0  0  0
   42.4930   12.5410   19.3460 N   0  0  0  0  0  0  0  0  0  0  0  0
   43.7940   12.3990   19.8390 C   0  0  0  0  0  0  0  0  0  0  0  0
   41.0300   12.6830   17.5420 C   0  0  0  0  0  0  0  0  0  0  0  0
   40.8310   12.6980   16.1730 C   0  0  0  0  0  0  0  0  0  0  0  0
   41.8420   12.5720   15.3270 C   0  0  0  0  0  0  0  0  0  0  0  0
   41.7520   12.5640   13.9820 N   0  0  0  0  0  0  0  0  0  0  0  0
   43.1130   12.4320   15.8230 C   0  0  0  0  0  0  0  0  0  0  0  0
   44.1350   12.3080   14.6100 S   0  0  0  0  0  0  0  0  0  0  0  0
   42.9460   12.4370   13.4160 C   0  0  0  0  0  0  0  0  0  0  0  0
   43.1610   12.3970   12.1140 C   0  0  1  0  0  0  0  0  0  0  0  0
   42.0870   12.5510   11.3320 N   0  0  0  0  0  0  0  0  0  0  0  0
   44.4450   12.2080   11.7310 O   0  0  0  0  0  0  0  0  0  0  0  0
   44.5380   11.6430   10.4130 C   0  0  0  0  0  0  0  0  0  0  0  0
   45.7300   12.1550   16.7340 N   0  0  0  0  0  0  0  0  0  0  0  0
   47.1810    9.9630   17.6100 F   0  0  0  0  0  0  0  0  0  0  0  0
   47.6870   11.1110   17.6770 C   0  0  0  0  0  0  0  0  0  0  0  0
   48.9660   11.2130   18.2010 C   0  0  0  0  0  0  0  0  0  0  0  0
   49.5950   12.4450   18.2930 C   0  0  0  0  0  0  0  0  0  0  0  0
   48.9230   13.5890   17.8610 C   0  0  0  0  0  0  0  0  0  0  0  0
   47.6410   13.5020   17.3310 C   0  0  0  0  0  0  0  0  0  0  0  0
   47.0020   12.2650   17.2340 C   0  0  0  0  0  0  0  0  0  0  0  0
   50.8730   12.5070   18.7930 O   0  0  0  0  0  0  0  0  0  0  0  0
   51.0420   13.4820   19.8480 C   0  0  0  0  0  0  0  0  0  0  0  0
  1  2  2  0  0  0  0
  1  7  1  0  0  0  0
  1  5  1  0  0  0  0
  2 11  1  0  0  0  0
  2  3  1  0  0  0  0
  3 18  1  0  0  0  0
  3  4  2  0  0  0  0
  4  6  1  0  0  0  0
  5  6  2  0  0  0  0
  7  8  2  0  0  0  0
  8  9  1  0  0  0  0
  9 10  1  0  0  0  0
  9 11  2  0  0  0  0
 10 13  2  0  0  0  0
 11 12  1  0  0  0  0
 12 13  1  0  0  0  0
 13 14  1  0  0  0  0
 14 15  1  6  0  0  0
 14 16  1  0  0  0  0
 16 17  1  0  0  0  0
 18 25  1  0  0  0  0
 19 20  1  0  0  0  0
 20 25  2  0  0  0  0
 20 21  1  0  0  0  0
 21 22  2  0  0  0  0
 22 23  1  0  0  0  0
 22 26  1  0  0  0  0
 23 24  2  0  0  0  0
 24 25  1  0  0  0  0
 26 27  1  0  0  0  0
M  END
>  <MODEL>
       2

>  <COMPND>
    UNNAMED

>  <AUTHOR>
    GENERATED BY OPEN BABEL 2.4.90

>  <MASTER>
        0    0    0    0    0    0    0    0   27    0   27    0

