__5lxd_A_rec_5lxd_7a7_lig_docked.pdb
 OpenBabel10181920203D

 27 30  0  0  1  0  0  0  0  0999 V2000
   42.4160   12.9130   18.5910 C   0  0  0  0  0  0  0  0  0  0  0  0
   43.3860   12.5290   17.6670 C   0  0  0  0  0  0  0  0  0  0  0  0
   44.6600   12.1370   18.1130 C   0  0  0  0  0  0  0  0  0  0  0  0
   44.9010   12.1260   19.4370 N   0  0  0  0  0  0  0  0  0  0  0  0
   42.6500   12.9130   19.9030 N   0  0  0  0  0  0  0  0  0  0  0  0
   43.9070   12.5020   20.3570 C   0  0  0  0  0  0  0  0  0  0  0  0
   41.1800   13.3160   18.1440 C   0  0  0  0  0  0  0  0  0  0  0  0
   40.9320   13.3300   16.7840 C   0  0  0  0  0  0  0  0  0  0  0  0
   41.8550   12.9550   15.9100 C   0  0  0  0  0  0  0  0  0  0  0  0
   41.7090   12.9230   14.5700 N   0  0  0  0  0  0  0  0  0  0  0  0
   43.0830   12.5530   16.3690 C   0  0  0  0  0  0  0  0  0  0  0  0
   44.0010   12.1650   15.1280 S   0  0  0  0  0  0  0  0  0  0  0  0
   42.8210   12.5160   13.9700 C   0  0  0  0  0  0  0  0  0  0  0  0
   42.9670   12.3860   12.6650 C   0  0  1  0  0  0  0  0  0  0  0  0
   42.0600   13.0060   11.9040 N   0  0  0  0  0  0  0  0  0  0  0  0
   44.0210   11.6420   12.2580 O   0  0  0  0  0  0  0  0  0  0  0  0
   44.7250   12.2550   11.1650 C   0  0  0  0  0  0  0  0  0  0  0  0
   45.6110   11.7330   17.2030 N   0  0  0  0  0  0  0  0  0  0  0  0
   47.2210    9.8230   18.4020 F   0  0  0  0  0  0  0  0  0  0  0  0
   47.6930   10.9570   18.1350 C   0  0  0  0  0  0  0  0  0  0  0  0
   49.0180   11.1890   18.4690 C   0  0  0  0  0  0  0  0  0  0  0  0
   49.6120   12.4110   18.1930 C   0  0  0  0  0  0  0  0  0  0  0  0
   48.8590   13.4140   17.5820 C   0  0  0  0  0  0  0  0  0  0  0  0
   47.5300   13.1950   17.2390 C   0  0  0  0  0  0  0  0  0  0  0  0
   46.9260   11.9670   17.5120 C   0  0  0  0  0  0  0  0  0  0  0  0
   50.9350   12.5980   18.5140 O   0  0  0  0  0  0  0  0  0  0  0  0
   51.1430   13.4730   19.6470 C   0  0  0  0  0  0  0  0  0  0  0  0
  1  2  2  0  0  0  0
  1  7  1  0  0  0  0
  1  5  1  0  0  0  0
  2 11  1  0  0  0  0
  2  3  1  0  0  0  0
  3 18  1  0  0  0  0
  3  4  2  0  0  0  0
  4  6  1  0  0  0  0
  5  6  2  0  0  0  0
  7  8  2  0  0  0  0
  8  9  1  0  0  0  0
  9 10  1  0  0  0  0
  9 11  2  0  0  0  0
 10 13  2  0  0  0  0
 11 12  1  0  0  0  0
 12 13  1  0  0  0  0
 13 14  1  0  0  0  0
 14 15  1  6  0  0  0
 14 16  1  0  0  0  0
 16 17  1  0  0  0  0
 18 25  1  0  0  0  0
 19 20  1  0  0  0  0
 20 25  2  0  0  0  0
 20 21  1  0  0  0  0
 21 22  2  0  0  0  0
 22 23  1  0  0  0  0
 22 26  1  0  0  0  0
 23 24  2  0  0  0  0
 24 25  1  0  0  0  0
 26 27  1  0  0  0  0
M  END
>  <MODEL>
       1

>  <COMPND>
    UNNAMED

>  <AUTHOR>
    GENERATED BY OPEN BABEL 2.4.90

>  <MASTER>
        0    0    0    0    0    0    0    0   27    0   27    0

