__1lzi_A_rec_4y64_bhe_lig_min.pdb
 OpenBabel10171922573D

 30 31  0  0  1  0  0  0  0  0999 V2000
   17.9260  -10.8400    6.0940 C   0  0  2  0  0  0  0  0  0  0  0  0
   19.2610  -11.1520    5.7640 O   0  0  0  0  0  0  0  0  0  0  0  0
   19.8370  -12.1740    6.5620 C   0  0  1  0  0  0  0  0  0  0  0  0
   19.0980  -13.4600    6.3380 C   0  0  2  0  0  0  0  0  0  0  0  0
   19.2340  -13.9180    4.9420 O   0  0  0  0  0  0  0  0  0  0  0  0
   17.6410  -13.2210    6.6860 C   0  0  2  0  0  0  0  0  0  0  0  0
   16.8700  -14.3920    6.4570 O   0  0  0  0  0  0  0  0  0  0  0  0
   17.0850  -12.0800    5.8400 C   0  0  1  0  0  0  0  0  0  0  0  0
   22.0290  -11.3590    6.8730 O   0  0  0  0  0  0  0  0  0  0  0  0
   21.2970  -12.3840    6.2090 C   0  0  0  0  0  0  0  0  0  0  0  0
   17.5000   -9.7710    5.2420 O   0  0  0  0  0  0  0  0  0  0  0  0
   18.3710   -8.6020    5.2460 C   0  0  0  0  0  0  0  0  0  0  0  0
   17.7240   -7.6730    4.3000 C   0  0  0  0  0  0  0  0  0  0  0  0
   18.2150   -6.2170    4.4900 C   0  0  0  0  0  0  0  0  0  0  0  0
   19.7300   -6.1760    4.7230 C   0  0  0  0  0  0  0  0  0  0  0  0
   20.2540   -4.7290    4.7340 C   0  0  0  0  0  0  0  0  0  0  0  0
   21.6620   -4.6280    5.3670 C   0  0  0  0  0  0  0  0  0  0  0  0
   22.5800   -3.9280    4.3910 C   0  0  0  0  0  0  0  0  0  0  0  0
   23.8880   -3.8660    5.1370 C   0  0  0  0  0  0  0  0  0  0  0  0
   15.7490  -11.8350    6.2580 O   0  0  0  0  0  0  0  0  0  0  0  0
   14.7590  -12.3730    5.3980 C   0  0  1  0  0  0  0  0  0  0  0  0
   13.3620  -12.0690    5.9640 C   0  0  1  0  0  0  0  0  0  0  0  0
   13.3320  -12.4590    7.2960 O   0  0  0  0  0  0  0  0  0  0  0  0
   13.1030  -10.5760    5.9170 C   0  0  2  0  0  0  0  0  0  0  0  0
   11.7770  -10.2710    6.3430 O   0  0  0  0  0  0  0  0  0  0  0  0
   13.2850  -10.0710    4.4980 C   0  0  2  0  0  0  0  0  0  0  0  0
   12.2970  -10.6390    3.6610 O   0  0  0  0  0  0  0  0  0  0  0  0
   14.7000  -10.4140    4.0270 C   0  0  1  0  0  0  0  0  0  0  0  0
   14.9100  -11.8340    4.0830 O   0  0  0  0  0  0  0  0  0  0  0  0
   14.9730   -9.9340    2.6040 C   0  0  0  0  0  0  0  0  0  0  0  0
  1 11  1  6  0  0  0
  1  2  1  0  0  0  0
  1  8  1  0  0  0  0
  2  3  1  0  0  0  0
  3 10  1  6  0  0  0
  3  4  1  0  0  0  0
  4  5  1  6  0  0  0
  4  6  1  0  0  0  0
  6  8  1  0  0  0  0
  6  7  1  6  0  0  0
  8 20  1  1  0  0  0
  9 10  1  0  0  0  0
 11 12  1  0  0  0  0
 12 13  1  0  0  0  0
 13 14  1  0  0  0  0
 14 15  1  0  0  0  0
 15 16  1  0  0  0  0
 16 17  1  0  0  0  0
 17 18  1  0  0  0  0
 18 19  1  0  0  0  0
 21 20  1  1  0  0  0
 21 29  1  0  0  0  0
 21 22  1  0  0  0  0
 22 24  1  0  0  0  0
 22 23  1  1  0  0  0
 24 26  1  0  0  0  0
 24 25  1  6  0  0  0
 26 27  1  6  0  0  0
 26 28  1  0  0  0  0
 28 30  1  6  0  0  0
 28 29  1  0  0  0  0
M  END
>  <COMPND>
    UNNAMED

>  <AUTHOR>
    GENERATED BY OPEN BABEL 2.4.90

>  <MASTER>
        0    0    0    0    0    0    0    0   30    0   30    0

