__1lzi_A_rec_2rj4_ad7_lig_min.pdb
 OpenBabel10181909093D

 27 28  0  0  1  0  0  0  0  0999 V2000
   17.8740  -11.0470    6.1740 C   0  0  2  0  0  0  0  0  0  0  0  0
   19.2130  -11.3840    5.7740 O   0  0  0  0  0  0  0  0  0  0  0  0
   19.7500  -12.5120    6.4950 C   0  0  1  0  0  0  0  0  0  0  0  0
   18.8750  -13.7480    6.2600 C   0  0  2  0  0  0  0  0  0  0  0  0
   18.7760  -14.0290    4.8580 O   0  0  0  0  0  0  0  0  0  0  0  0
   17.4600  -13.4640    6.7220 C   0  0  2  0  0  0  0  0  0  0  0  0
   16.6370  -14.6400    6.4020 N   0  0  0  0  0  0  0  0  0  0  0  0
   16.9070  -12.2220    5.9960 C   0  0  1  0  0  0  0  0  0  0  0  0
   21.1760  -12.7480    6.0110 C   0  0  0  0  0  0  0  0  0  0  0  0
   22.0350  -11.7510    6.5690 O   0  0  0  0  0  0  0  0  0  0  0  0
   17.4480   -9.9360    5.3720 O   0  0  0  0  0  0  0  0  0  0  0  0
   17.9760   -8.7050    5.9370 C   0  0  0  0  0  0  0  0  0  0  0  0
   16.9210   -7.7560    6.5230 C   0  0  0  0  0  0  0  0  0  0  0  0
   16.0650   -8.4060    7.6190 C   0  0  0  0  0  0  0  0  0  0  0  0
   14.9610   -7.4590    8.1050 C   0  0  0  0  0  0  0  0  0  0  0  0
   12.4680   -7.4110    8.5010 C   0  0  0  0  0  0  0  0  0  0  0  0
   13.7470   -8.2410    8.6150 C   0  0  0  0  0  0  0  0  0  0  0  0
   15.6310  -11.8260    6.5300 O   0  0  0  0  0  0  0  0  0  0  0  0
   14.5360  -12.2870    5.6960 C   0  0  1  0  0  0  0  0  0  0  0  0
   13.3430  -11.3390    5.9720 C   0  0  0  0  0  0  0  0  0  0  0  0
   14.8800  -12.4000    4.2600 O   0  0  0  0  0  0  0  0  0  0  0  0
   15.0770  -11.1390    3.5440 C   0  0  1  0  0  0  0  0  0  0  0  0
   15.3900  -11.4190    2.0710 C   0  0  0  0  0  0  0  0  0  0  0  0
   13.8480  -10.2390    3.7430 C   0  0  1  0  0  0  0  0  0  0  0  0
   12.6880  -10.8320    3.1350 O   0  0  0  0  0  0  0  0  0  0  0  0
   13.5960  -10.0090    5.2440 C   0  0  1  0  0  0  0  0  0  0  0  0
   12.4840   -9.1280    5.4250 O   0  0  0  0  0  0  0  0  0  0  0  0
  1 11  1  6  0  0  0
  1  2  1  0  0  0  0
  1  8  1  0  0  0  0
  2  3  1  0  0  0  0
  3  9  1  6  0  0  0
  3  4  1  0  0  0  0
  4  5  1  6  0  0  0
  4  6  1  0  0  0  0
  6  8  1  0  0  0  0
  6  7  1  6  0  0  0
  8 18  1  1  0  0  0
  9 10  1  0  0  0  0
 11 12  1  0  0  0  0
 12 13  1  0  0  0  0
 13 14  1  0  0  0  0
 14 15  1  0  0  0  0
 15 17  1  0  0  0  0
 16 17  1  0  0  0  0
 19 18  1  1  0  0  0
 19 21  1  0  0  0  0
 19 20  1  0  0  0  0
 20 26  1  0  0  0  0
 21 22  1  0  0  0  0
 22 23  1  6  0  0  0
 22 24  1  0  0  0  0
 24 25  1  1  0  0  0
 24 26  1  0  0  0  0
 26 27  1  6  0  0  0
M  END
>  <COMPND>
    UNNAMED

>  <AUTHOR>
    GENERATED BY OPEN BABEL 2.4.90

>  <MASTER>
        0    0    0    0    0    0    0    0   27    0   27    0

