__1lzi_A_rec_3v0m_bhe_lig_min.pdb
 OpenBabel10181911463D

 30 31  0  0  1  0  0  0  0  0999 V2000
   18.0070  -10.8550    6.1000 C   0  0  2  0  0  0  0  0  0  0  0  0
   19.2970  -11.2260    5.7290 O   0  0  0  0  0  0  0  0  0  0  0  0
   19.7730  -12.3280    6.4960 C   0  0  1  0  0  0  0  0  0  0  0  0
   18.8930  -13.5710    6.3130 C   0  0  2  0  0  0  0  0  0  0  0  0
   18.9270  -14.0020    4.9410 O   0  0  0  0  0  0  0  0  0  0  0  0
   17.5210  -13.1690    6.7760 C   0  0  2  0  0  0  0  0  0  0  0  0
   16.6400  -14.3070    6.6010 O   0  0  0  0  0  0  0  0  0  0  0  0
   17.0420  -12.0060    5.9210 C   0  0  1  0  0  0  0  0  0  0  0  0
   22.0600  -11.5840    6.7090 O   0  0  0  0  0  0  0  0  0  0  0  0
   21.2150  -12.5930    6.1120 C   0  0  0  0  0  0  0  0  0  0  0  0
   17.5960   -9.7520    5.2920 O   0  0  0  0  0  0  0  0  0  0  0  0
   18.5230   -8.6520    5.3170 C   0  0  0  0  0  0  0  0  0  0  0  0
   18.0020   -7.5780    4.3500 C   0  0  0  0  0  0  0  0  0  0  0  0
   18.4590   -6.1580    4.7670 C   0  0  0  0  0  0  0  0  0  0  0  0
   19.9770   -5.9340    4.6710 C   0  0  0  0  0  0  0  0  0  0  0  0
   20.4800   -5.5940    6.0940 C   0  0  0  0  0  0  0  0  0  0  0  0
   21.7590   -4.7330    6.0870 C   0  0  0  0  0  0  0  0  0  0  0  0
   22.1070   -4.2000    4.7060 C   0  0  0  0  0  0  0  0  0  0  0  0
   21.9570   -2.6820    4.7210 C   0  0  0  0  0  0  0  0  0  0  0  0
   15.7320  -11.5760    6.3300 O   0  0  0  0  0  0  0  0  0  0  0  0
   14.6180  -12.2480    5.7840 C   0  0  1  0  0  0  0  0  0  0  0  0
   13.3660  -11.4760    6.0830 C   0  0  1  0  0  0  0  0  0  0  0  0
   13.1670  -11.3470    7.5180 O   0  0  0  0  0  0  0  0  0  0  0  0
   13.4680  -10.0630    5.5220 C   0  0  2  0  0  0  0  0  0  0  0  0
   12.1920   -9.4160    5.7590 O   0  0  0  0  0  0  0  0  0  0  0  0
   13.6860  -10.0880    4.0390 C   0  0  2  0  0  0  0  0  0  0  0  0
   12.6060  -10.7080    3.3240 O   0  0  0  0  0  0  0  0  0  0  0  0
   14.9940  -10.8490    3.8170 C   0  0  1  0  0  0  0  0  0  0  0  0
   14.8910  -12.1890    4.3460 O   0  0  0  0  0  0  0  0  0  0  0  0
   15.2920  -10.9270    2.3170 C   0  0  0  0  0  0  0  0  0  0  0  0
  1 11  1  6  0  0  0
  1  2  1  0  0  0  0
  1  8  1  0  0  0  0
  2  3  1  0  0  0  0
  3 10  1  6  0  0  0
  3  4  1  0  0  0  0
  4  5  1  6  0  0  0
  4  6  1  0  0  0  0
  6  8  1  0  0  0  0
  6  7  1  6  0  0  0
  8 20  1  1  0  0  0
  9 10  1  0  0  0  0
 11 12  1  0  0  0  0
 12 13  1  0  0  0  0
 13 14  1  0  0  0  0
 14 15  1  0  0  0  0
 15 16  1  0  0  0  0
 16 17  1  0  0  0  0
 17 18  1  0  0  0  0
 18 19  1  0  0  0  0
 21 20  1  1  0  0  0
 21 29  1  0  0  0  0
 21 22  1  0  0  0  0
 22 24  1  0  0  0  0
 22 23  1  1  0  0  0
 24 26  1  0  0  0  0
 24 25  1  6  0  0  0
 26 27  1  6  0  0  0
 26 28  1  0  0  0  0
 28 30  1  6  0  0  0
 28 29  1  0  0  0  0
M  END
>  <COMPND>
    UNNAMED

>  <AUTHOR>
    GENERATED BY OPEN BABEL 2.4.90

>  <MASTER>
        0    0    0    0    0    0    0    0   30    0   30    0

