__1lzi_A_rec_1zj2_dr3_lig_min.pdb
 OpenBabel10181902123D

 36 38  0  0  1  0  0  0  0  0999 V2000
   16.8580  -12.4230    5.7190 C   0  0  2  0  0  0  0  0  0  0  0  0
   17.5220  -13.6370    6.3730 C   0  0  1  0  0  0  0  0  0  0  0  0
   16.9360  -14.8360    5.8600 O   0  0  0  0  0  0  0  0  0  0  0  0
   19.0260  -13.6460    6.0890 C   0  0  1  0  0  0  0  0  0  0  0  0
   19.2480  -13.8400    4.6910 O   0  0  0  0  0  0  0  0  0  0  0  0
   19.6430  -12.3160    6.5310 C   0  0  2  0  0  0  0  0  0  0  0  0
   18.9630  -11.2300    5.8800 O   0  0  0  0  0  0  0  0  0  0  0  0
   17.5700  -11.1780    6.2310 C   0  0  1  0  0  0  0  0  0  0  0  0
   21.1270  -12.2920    6.1580 C   0  0  0  0  0  0  0  0  0  0  0  0
   21.8110  -11.3290    6.9660 O   0  0  0  0  0  0  0  0  0  0  0  0
   15.4720  -12.3400    6.0860 O   0  0  0  0  0  0  0  0  0  0  0  0
   13.3020  -13.9820    6.7510 O   0  0  0  0  0  0  0  0  0  0  0  0
   13.2160  -13.0880    5.6390 C   0  0  1  0  0  0  0  0  0  0  0  0
   12.5680  -11.7710    6.0760 C   0  0  2  0  0  0  0  0  0  0  0  0
   11.2230  -12.0120    6.4970 O   0  0  0  0  0  0  0  0  0  0  0  0
   12.5730  -10.7700    4.9180 C   0  0  2  0  0  0  0  0  0  0  0  0
   11.7090  -11.2340    3.8780 O   0  0  0  0  0  0  0  0  0  0  0  0
   13.9990  -10.6130    4.3830 C   0  0  2  0  0  0  0  0  0  0  0  0
   14.0120   -9.6380    3.2040 C   0  0  0  0  0  0  0  0  0  0  0  0
   14.5140  -11.8900    3.9710 O   0  0  0  0  0  0  0  0  0  0  0  0
   14.6080  -12.8370    5.0500 C   0  0  1  0  0  0  0  0  0  0  0  0
   16.9520  -10.0320    5.6260 O   0  0  0  0  0  0  0  0  0  0  0  0
   17.4890   -8.8160    6.1680 C   0  0  1  0  0  0  0  0  0  0  0  0
   17.9650   -7.8980    5.0400 C   0  0  2  0  0  0  0  0  0  0  0  0
   19.0730   -8.5100    4.3740 O   0  0  0  0  0  0  0  0  0  0  0  0
   18.3930   -6.5370    5.5980 C   0  0  2  0  0  0  0  0  0  0  0  0
   17.3020   -5.9460    6.3240 O   0  0  0  0  0  0  0  0  0  0  0  0
   16.9270   -6.7320    7.4680 C   0  0  1  0  0  0  0  0  0  0  0  0
   15.8810   -6.0630    8.1760 O   0  0  0  0  0  0  0  0  0  0  0  0
   16.4280   -8.1060    7.0120 C   0  0  2  0  0  0  0  0  0  0  0  0
   16.0780   -8.9280    8.1820 N   0  0  0  0  0  0  0  0  0  0  0  0
   14.8700   -9.4440    8.3970 C   0  0  0  0  0  0  0  0  0  0  0  0
   13.6890   -8.6950    7.7720 C   0  0  0  0  0  0  0  0  0  0  0  0
   14.6620  -10.1910    9.5140 O   0  0  0  0  0  0  0  0  0  0  0  0
   18.7770   -5.5980    4.4530 C   0  0  0  0  0  0  0  0  0  0  0  0
   17.6060   -5.2370    3.7160 O   0  0  0  0  0  0  0  0  0  0  0  0
  1 11  1  1  0  0  0
  1  2  1  0  0  0  0
  1  8  1  0  0  0  0
  2  3  1  6  0  0  0
  2  4  1  0  0  0  0
  4  5  1  6  0  0  0
  4  6  1  0  0  0  0
  6  7  1  0  0  0  0
  6  9  1  6  0  0  0
  7  8  1  0  0  0  0
  8 22  1  6  0  0  0
  9 10  1  0  0  0  0
 13 12  1  1  0  0  0
 13 21  1  0  0  0  0
 13 14  1  0  0  0  0
 14 16  1  0  0  0  0
 14 15  1  6  0  0  0
 16 17  1  6  0  0  0
 16 18  1  0  0  0  0
 18 19  1  6  0  0  0
 18 20  1  0  0  0  0
 20 21  1  0  0  0  0
 21 11  1  1  0  0  0
 23 22  1  6  0  0  0
 23 24  1  0  0  0  0
 23 30  1  0  0  0  0
 24 25  1  1  0  0  0
 24 26  1  0  0  0  0
 26 35  1  6  0  0  0
 26 27  1  0  0  0  0
 27 28  1  0  0  0  0
 28 30  1  0  0  0  0
 28 29  1  6  0  0  0
 30 31  1  1  0  0  0
 31 32  1  0  0  0  0
 32 33  1  0  0  0  0
 32 34  2  0  0  0  0
 35 36  1  0  0  0  0
M  END
>  <COMPND>
    UNNAMED

>  <AUTHOR>
    GENERATED BY OPEN BABEL 2.4.90

>  <MASTER>
        0    0    0    0    0    0    0    0   36    0   36    0

