__1lzi_A_rec_4kc2_bhe_lig_min.pdb
 OpenBabel10181911513D

 30 31  0  0  1  0  0  0  0  0999 V2000
   17.7250  -10.9550    6.0500 C   0  0  2  0  0  0  0  0  0  0  0  0
   19.1290  -11.1710    5.7590 O   0  0  0  0  0  0  0  0  0  0  0  0
   19.7170  -12.2010    6.5680 C   0  0  1  0  0  0  0  0  0  0  0  0
   19.0310  -13.5540    6.3040 C   0  0  2  0  0  0  0  0  0  0  0  0
   19.1960  -13.9540    4.9310 O   0  0  0  0  0  0  0  0  0  0  0  0
   17.5240  -13.4080    6.6070 C   0  0  2  0  0  0  0  0  0  0  0  0
   16.8330  -14.6240    6.2740 O   0  0  0  0  0  0  0  0  0  0  0  0
   16.9350  -12.2440    5.7960 C   0  0  1  0  0  0  0  0  0  0  0  0
   21.9090  -11.2560    7.0080 O   0  0  0  0  0  0  0  0  0  0  0  0
   21.2170  -12.2480    6.2320 C   0  0  0  0  0  0  0  0  0  0  0  0
   17.2630   -9.9490    5.1600 O   0  0  0  0  0  0  0  0  0  0  0  0
   18.0660   -8.7620    5.2580 C   0  0  0  0  0  0  0  0  0  0  0  0
   17.6160   -7.7800    4.1740 C   0  0  0  0  0  0  0  0  0  0  0  0
   18.0830   -6.3630    4.5250 C   0  0  0  0  0  0  0  0  0  0  0  0
   19.6000   -6.3460    4.7190 C   0  0  0  0  0  0  0  0  0  0  0  0
   20.0900   -4.8930    4.6930 C   0  0  0  0  0  0  0  0  0  0  0  0
   21.4590   -4.8010    5.3750 C   0  0  0  0  0  0  0  0  0  0  0  0
   22.4080   -3.9940    4.4820 C   0  0  0  0  0  0  0  0  0  0  0  0
   23.7870   -3.8940    5.1360 C   0  0  0  0  0  0  0  0  0  0  0  0
   15.5600  -12.0180    6.1590 O   0  0  0  0  0  0  0  0  0  0  0  0
   14.6390  -12.6500    5.2520 C   0  0  1  0  0  0  0  0  0  0  0  0
   13.2270  -12.4030    5.7700 C   0  0  1  0  0  0  0  0  0  0  0  0
   13.1470  -12.8620    7.1350 O   0  0  0  0  0  0  0  0  0  0  0  0
   12.9380  -10.8870    5.6840 C   0  0  2  0  0  0  0  0  0  0  0  0
   11.6120  -10.5850    6.1520 O   0  0  0  0  0  0  0  0  0  0  0  0
   13.1180  -10.3750    4.2380 C   0  0  2  0  0  0  0  0  0  0  0  0
   12.1160  -10.9520    3.3770 O   0  0  0  0  0  0  0  0  0  0  0  0
   14.5270  -10.7330    3.7410 C   0  0  1  0  0  0  0  0  0  0  0  0
   14.7600  -12.1550    3.8860 O   0  0  0  0  0  0  0  0  0  0  0  0
   14.7230  -10.3360    2.2780 C   0  0  0  0  0  0  0  0  0  0  0  0
  1 11  1  6  0  0  0
  1  2  1  0  0  0  0
  1  8  1  0  0  0  0
  2  3  1  0  0  0  0
  3 10  1  6  0  0  0
  3  4  1  0  0  0  0
  4  5  1  6  0  0  0
  4  6  1  0  0  0  0
  6  8  1  0  0  0  0
  6  7  1  6  0  0  0
  8 20  1  1  0  0  0
  9 10  1  0  0  0  0
 11 12  1  0  0  0  0
 12 13  1  0  0  0  0
 13 14  1  0  0  0  0
 14 15  1  0  0  0  0
 15 16  1  0  0  0  0
 16 17  1  0  0  0  0
 17 18  1  0  0  0  0
 18 19  1  0  0  0  0
 21 20  1  1  0  0  0
 21 29  1  0  0  0  0
 21 22  1  0  0  0  0
 22 24  1  0  0  0  0
 22 23  1  1  0  0  0
 24 26  1  0  0  0  0
 24 25  1  6  0  0  0
 26 27  1  6  0  0  0
 26 28  1  0  0  0  0
 28 30  1  6  0  0  0
 28 29  1  0  0  0  0
M  END
>  <COMPND>
    UNNAMED

>  <AUTHOR>
    GENERATED BY OPEN BABEL 2.4.90

>  <MASTER>
        0    0    0    0    0    0    0    0   30    0   30    0

