__1lzi_A_rec_5c1l_da8_lig_min.pdb
 OpenBabel10181902153D

 27 28  0  0  1  0  0  0  0  0999 V2000
   18.0930  -10.8380    6.1610 C   0  0  2  0  0  0  0  0  0  0  0  0
   19.3590  -11.3210    5.7160 O   0  0  0  0  0  0  0  0  0  0  0  0
   19.7850  -12.3700    6.5160 C   0  0  1  0  0  0  0  0  0  0  0  0
   18.8620  -13.5770    6.2760 C   0  0  2  0  0  0  0  0  0  0  0  0
   18.8470  -14.0250    4.8990 O   0  0  0  0  0  0  0  0  0  0  0  0
   17.4400  -13.1590    6.6770 C   0  0  0  0  0  0  0  0  0  0  0  0
   17.0510  -11.8990    5.9150 C   0  0  1  0  0  0  0  0  0  0  0  0
   21.2350  -12.6970    6.1290 C   0  0  0  0  0  0  0  0  0  0  0  0
   22.0850  -11.6410    6.6400 O   0  0  0  0  0  0  0  0  0  0  0  0
   17.7470   -9.7690    5.3940 O   0  0  0  0  0  0  0  0  0  0  0  0
   18.3230   -8.5250    5.9240 C   0  0  0  0  0  0  0  0  0  0  0  0
   17.1990   -7.5820    6.3510 C   0  0  0  0  0  0  0  0  0  0  0  0
   16.3350   -8.1020    7.4980 C   0  0  0  0  0  0  0  0  0  0  0  0
   15.3910   -7.0350    8.1140 C   0  0  0  0  0  0  0  0  0  0  0  0
   13.1530   -6.7320    9.3000 C   0  0  0  0  0  0  0  0  0  0  0  0
   13.9670   -7.5650    8.2940 C   0  0  0  0  0  0  0  0  0  0  0  0
   15.7460  -11.4480    6.3710 O   0  0  0  0  0  0  0  0  0  0  0  0
   14.6630  -12.1340    5.7350 C   0  0  2  0  0  0  0  0  0  0  0  0
   14.8920  -12.2110    4.3540 O   0  0  0  0  0  0  0  0  0  0  0  0
   14.9830  -10.9180    3.6620 C   0  0  1  0  0  0  0  0  0  0  0  0
   15.2810  -11.1930    2.1900 C   0  0  0  0  0  0  0  0  0  0  0  0
   13.6950  -10.1360    3.9080 C   0  0  1  0  0  0  0  0  0  0  0  0
   12.5940  -10.7580    3.2450 O   0  0  0  0  0  0  0  0  0  0  0  0
   13.4530  -10.0130    5.4050 C   0  0  1  0  0  0  0  0  0  0  0  0
   12.2420   -9.2630    5.6280 O   0  0  0  0  0  0  0  0  0  0  0  0
   13.3680  -11.3920    6.0400 C   0  0  2  0  0  0  0  0  0  0  0  0
   13.2400  -11.2630    7.4560 O   0  0  0  0  0  0  0  0  0  0  0  0
  1 10  1  6  0  0  0
  1  2  1  0  0  0  0
  1  7  1  0  0  0  0
  2  3  1  0  0  0  0
  3  8  1  6  0  0  0
  3  4  1  0  0  0  0
  4  5  1  6  0  0  0
  4  6  1  0  0  0  0
  6  7  1  0  0  0  0
  7 17  1  1  0  0  0
  8  9  1  0  0  0  0
 10 11  1  0  0  0  0
 11 12  1  0  0  0  0
 12 13  1  0  0  0  0
 13 14  1  0  0  0  0
 14 16  1  0  0  0  0
 15 16  1  0  0  0  0
 18 17  1  1  0  0  0
 18 19  1  0  0  0  0
 18 26  1  0  0  0  0
 19 20  1  0  0  0  0
 20 21  1  6  0  0  0
 20 22  1  0  0  0  0
 22 23  1  6  0  0  0
 22 24  1  0  0  0  0
 24 26  1  0  0  0  0
 24 25  1  6  0  0  0
 26 27  1  1  0  0  0
M  END
>  <COMPND>
    UNNAMED

>  <AUTHOR>
    GENERATED BY OPEN BABEL 2.4.90

>  <MASTER>
        0    0    0    0    0    0    0    0   27    0   27    0

