__1lzi_A_rec_5c1g_da8_lig_min.pdb
 OpenBabel10181901243D

 27 28  0  0  1  0  0  0  0  0999 V2000
   18.0880  -10.6660    6.1510 C   0  0  2  0  0  0  0  0  0  0  0  0
   19.4070  -11.0770    5.7480 O   0  0  0  0  0  0  0  0  0  0  0  0
   19.8080  -12.1790    6.5740 C   0  0  1  0  0  0  0  0  0  0  0  0
   18.8640  -13.3830    6.4320 C   0  0  2  0  0  0  0  0  0  0  0  0
   18.8590  -13.8630    5.0980 O   0  0  0  0  0  0  0  0  0  0  0  0
   17.4750  -12.8900    6.8470 C   0  0  0  0  0  0  0  0  0  0  0  0
   17.0510  -11.7290    5.9060 C   0  0  1  0  0  0  0  0  0  0  0  0
   21.2560  -12.4770    6.1770 C   0  0  0  0  0  0  0  0  0  0  0  0
   22.1120  -11.4890    6.7550 O   0  0  0  0  0  0  0  0  0  0  0  0
   17.5950   -9.5750    5.4020 O   0  0  0  0  0  0  0  0  0  0  0  0
   18.5980   -8.5690    5.3400 C   0  0  0  0  0  0  0  0  0  0  0  0
   18.1350   -7.6570    4.2130 C   0  0  0  0  0  0  0  0  0  0  0  0
   18.5660   -6.2470    4.6510 C   0  0  0  0  0  0  0  0  0  0  0  0
   17.7390   -5.0990    4.0810 C   0  0  0  0  0  0  0  0  0  0  0  0
   16.6200   -2.9130    4.7100 C   0  0  0  0  0  0  0  0  0  0  0  0
   17.3910   -4.1350    5.2150 C   0  0  0  0  0  0  0  0  0  0  0  0
   15.7550  -11.3110    6.3490 O   0  0  0  0  0  0  0  0  0  0  0  0
   14.6860  -12.0700    5.7850 C   0  0  2  0  0  0  0  0  0  0  0  0
   14.9330  -12.1080    4.3550 O   0  0  0  0  0  0  0  0  0  0  0  0
   14.9650  -10.7880    3.7600 C   0  0  1  0  0  0  0  0  0  0  0  0
   15.2570  -10.9190    2.2640 C   0  0  0  0  0  0  0  0  0  0  0  0
   13.6230  -10.0830    3.9730 C   0  0  1  0  0  0  0  0  0  0  0  0
   12.5590  -10.7810    3.3260 O   0  0  0  0  0  0  0  0  0  0  0  0
   13.3840   -9.9740    5.4680 C   0  0  1  0  0  0  0  0  0  0  0  0
   12.1270   -9.3400    5.7060 O   0  0  0  0  0  0  0  0  0  0  0  0
   13.3530  -11.3760    6.0610 C   0  0  2  0  0  0  0  0  0  0  0  0
   13.1310  -11.2560    7.4610 O   0  0  0  0  0  0  0  0  0  0  0  0
  1  7  1  0  0  0  0
  1 10  1  6  0  0  0
  1  2  1  0  0  0  0
  2  3  1  0  0  0  0
  3  4  1  0  0  0  0
  3  8  1  6  0  0  0
  4  5  1  6  0  0  0
  4  6  1  0  0  0  0
  6  7  1  0  0  0  0
  7 17  1  1  0  0  0
  8  9  1  0  0  0  0
 10 11  1  0  0  0  0
 11 12  1  0  0  0  0
 12 13  1  0  0  0  0
 13 14  1  0  0  0  0
 14 16  1  0  0  0  0
 15 16  1  0  0  0  0
 18 17  1  1  0  0  0
 18 19  1  0  0  0  0
 18 26  1  0  0  0  0
 19 20  1  0  0  0  0
 20 21  1  6  0  0  0
 20 22  1  0  0  0  0
 22 23  1  6  0  0  0
 22 24  1  0  0  0  0
 24 26  1  0  0  0  0
 24 25  1  6  0  0  0
 26 27  1  1  0  0  0
M  END
>  <COMPND>
    UNNAMED

>  <AUTHOR>
    GENERATED BY OPEN BABEL 2.4.90

>  <MASTER>
        0    0    0    0    0    0    0    0   27    0   27    0

