__1lzi_A_rec_4kc4_bhe_lig_min.pdb
 OpenBabel10181909453D

 30 31  0  0  1  0  0  0  0  0999 V2000
   17.7500  -10.9880    6.1140 C   0  0  2  0  0  0  0  0  0  0  0  0
   19.0910  -11.3140    5.7010 O   0  0  0  0  0  0  0  0  0  0  0  0
   19.6640  -12.3620    6.5020 C   0  0  1  0  0  0  0  0  0  0  0  0
   18.8570  -13.6660    6.2990 C   0  0  2  0  0  0  0  0  0  0  0  0
   18.8760  -14.0820    4.9220 O   0  0  0  0  0  0  0  0  0  0  0  0
   17.4030  -13.3960    6.7130 C   0  0  2  0  0  0  0  0  0  0  0  0
   16.5840  -14.5530    6.4780 O   0  0  0  0  0  0  0  0  0  0  0  0
   16.8400  -12.2010    5.9280 C   0  0  1  0  0  0  0  0  0  0  0  0
   21.9510  -11.5280    6.7700 O   0  0  0  0  0  0  0  0  0  0  0  0
   21.1510  -12.5450    6.1440 C   0  0  0  0  0  0  0  0  0  0  0  0
   17.2870   -9.9110    5.3010 O   0  0  0  0  0  0  0  0  0  0  0  0
   18.1920   -8.8040    5.3030 C   0  0  0  0  0  0  0  0  0  0  0  0
   17.7180   -7.8270    4.2270 C   0  0  0  0  0  0  0  0  0  0  0  0
   18.1280   -6.4020    4.5930 C   0  0  0  0  0  0  0  0  0  0  0  0
   19.6440   -6.3320    4.7240 C   0  0  0  0  0  0  0  0  0  0  0  0
   20.1050   -4.8660    4.6950 C   0  0  0  0  0  0  0  0  0  0  0  0
   21.4720   -4.7750    5.3700 C   0  0  0  0  0  0  0  0  0  0  0  0
   22.4330   -3.9900    4.4710 C   0  0  0  0  0  0  0  0  0  0  0  0
   23.8020   -3.8920    5.1460 C   0  0  0  0  0  0  0  0  0  0  0  0
   15.5360  -11.8750    6.4120 O   0  0  0  0  0  0  0  0  0  0  0  0
   14.4660  -12.4900    5.6390 C   0  0  1  0  0  0  0  0  0  0  0  0
   13.1700  -11.7330    5.9160 C   0  0  1  0  0  0  0  0  0  0  0  0
   12.9350  -11.7180    7.3340 O   0  0  0  0  0  0  0  0  0  0  0  0
   13.3350  -10.2910    5.3740 C   0  0  2  0  0  0  0  0  0  0  0  0
   12.1590   -9.5180    5.5590 O   0  0  0  0  0  0  0  0  0  0  0  0
   13.6490  -10.3260    3.8820 C   0  0  2  0  0  0  0  0  0  0  0  0
   12.5350  -10.8970    3.1670 O   0  0  0  0  0  0  0  0  0  0  0  0
   14.9180  -11.1470    3.6760 C   0  0  1  0  0  0  0  0  0  0  0  0
   14.7410  -12.4950    4.2180 O   0  0  0  0  0  0  0  0  0  0  0  0
   15.3100  -11.2150    2.2000 C   0  0  0  0  0  0  0  0  0  0  0  0
  1 11  1  6  0  0  0
  1  2  1  0  0  0  0
  1  8  1  0  0  0  0
  2  3  1  0  0  0  0
  3 10  1  6  0  0  0
  3  4  1  0  0  0  0
  4  5  1  6  0  0  0
  4  6  1  0  0  0  0
  6  8  1  0  0  0  0
  6  7  1  6  0  0  0
  8 20  1  1  0  0  0
  9 10  1  0  0  0  0
 11 12  1  0  0  0  0
 12 13  1  0  0  0  0
 13 14  1  0  0  0  0
 14 15  1  0  0  0  0
 15 16  1  0  0  0  0
 16 17  1  0  0  0  0
 17 18  1  0  0  0  0
 18 19  1  0  0  0  0
 21 20  1  1  0  0  0
 21 29  1  0  0  0  0
 21 22  1  0  0  0  0
 22 24  1  0  0  0  0
 22 23  1  1  0  0  0
 24 26  1  0  0  0  0
 24 25  1  6  0  0  0
 26 27  1  6  0  0  0
 26 28  1  0  0  0  0
 28 30  1  6  0  0  0
 28 29  1  0  0  0  0
M  END
>  <COMPND>
    UNNAMED

>  <AUTHOR>
    GENERATED BY OPEN BABEL 2.4.90

>  <MASTER>
        0    0    0    0    0    0    0    0   30    0   30    0

