__1lzi_A_rec_1zi5_dr3_lig_min.pdb
 OpenBabel10171922413D

 36 38  0  0  1  0  0  0  0  0999 V2000
   16.8550  -12.4410    5.7690 C   0  0  2  0  0  0  0  0  0  0  0  0
   17.5430  -13.6400    6.4260 C   0  0  1  0  0  0  0  0  0  0  0  0
   16.9450  -14.8520    5.9620 O   0  0  0  0  0  0  0  0  0  0  0  0
   19.0400  -13.6480    6.1020 C   0  0  1  0  0  0  0  0  0  0  0  0
   19.2240  -13.8490    4.6980 O   0  0  0  0  0  0  0  0  0  0  0  0
   19.6550  -12.3090    6.5170 C   0  0  2  0  0  0  0  0  0  0  0  0
   18.9640  -11.2420    5.8470 O   0  0  0  0  0  0  0  0  0  0  0  0
   17.5750  -11.1790    6.2180 C   0  0  1  0  0  0  0  0  0  0  0  0
   21.1420  -12.2680    6.1530 C   0  0  0  0  0  0  0  0  0  0  0  0
   21.8070  -11.3090    6.9800 O   0  0  0  0  0  0  0  0  0  0  0  0
   15.4780  -12.3630    6.1760 O   0  0  0  0  0  0  0  0  0  0  0  0
   13.3440  -14.0760    6.8370 O   0  0  0  0  0  0  0  0  0  0  0  0
   13.2240  -13.1400    5.7630 C   0  0  1  0  0  0  0  0  0  0  0  0
   12.5810  -11.8440    6.2640 C   0  0  2  0  0  0  0  0  0  0  0  0
   11.2470  -12.1100    6.7060 O   0  0  0  0  0  0  0  0  0  0  0  0
   12.5510  -10.8010    5.1440 C   0  0  2  0  0  0  0  0  0  0  0  0
   11.6600  -11.2300    4.1120 O   0  0  0  0  0  0  0  0  0  0  0  0
   13.9610  -10.6190    4.5730 C   0  0  2  0  0  0  0  0  0  0  0  0
   13.9460   -9.6040    3.4290 C   0  0  0  0  0  0  0  0  0  0  0  0
   14.4670  -11.8790    4.1020 O   0  0  0  0  0  0  0  0  0  0  0  0
   14.5990  -12.8540    5.1520 C   0  0  1  0  0  0  0  0  0  0  0  0
   16.9630  -10.0500    5.5770 O   0  0  0  0  0  0  0  0  0  0  0  0
   17.4850   -8.8290    6.1220 C   0  0  1  0  0  0  0  0  0  0  0  0
   17.9500   -7.8860    5.0080 C   0  0  2  0  0  0  0  0  0  0  0  0
   19.0250   -8.4960    4.2880 O   0  0  0  0  0  0  0  0  0  0  0  0
   18.4180   -6.5560    5.6040 C   0  0  2  0  0  0  0  0  0  0  0  0
   17.3630   -5.9650    6.3820 O   0  0  0  0  0  0  0  0  0  0  0  0
   16.9850   -6.7880    7.4990 C   0  0  1  0  0  0  0  0  0  0  0  0
   15.9810   -6.1250    8.2710 O   0  0  0  0  0  0  0  0  0  0  0  0
   16.4390   -8.1260    6.9900 C   0  0  2  0  0  0  0  0  0  0  0  0
   16.0570   -8.9840    8.1230 N   0  0  0  0  0  0  0  0  0  0  0  0
   14.8250   -9.4500    8.3160 C   0  0  0  0  0  0  0  0  0  0  0  0
   13.6850   -8.5890    7.7640 C   0  0  0  0  0  0  0  0  0  0  0  0
   14.5820  -10.2430    9.3920 O   0  0  0  0  0  0  0  0  0  0  0  0
   18.8180   -5.5950    4.4830 C   0  0  0  0  0  0  0  0  0  0  0  0
   17.6610   -5.2310    3.7280 O   0  0  0  0  0  0  0  0  0  0  0  0
  1  8  1  0  0  0  0
  1 11  1  1  0  0  0
  1  2  1  0  0  0  0
  2  3  1  6  0  0  0
  2  4  1  0  0  0  0
  4  5  1  6  0  0  0
  4  6  1  0  0  0  0
  6  7  1  0  0  0  0
  6  9  1  6  0  0  0
  7  8  1  0  0  0  0
  8 22  1  6  0  0  0
  9 10  1  0  0  0  0
 13 12  1  1  0  0  0
 13 21  1  0  0  0  0
 13 14  1  0  0  0  0
 14 16  1  0  0  0  0
 14 15  1  6  0  0  0
 16 17  1  6  0  0  0
 16 18  1  0  0  0  0
 18 19  1  6  0  0  0
 18 20  1  0  0  0  0
 20 21  1  0  0  0  0
 21 11  1  1  0  0  0
 23 22  1  6  0  0  0
 23 24  1  0  0  0  0
 23 30  1  0  0  0  0
 24 25  1  1  0  0  0
 24 26  1  0  0  0  0
 26 35  1  6  0  0  0
 26 27  1  0  0  0  0
 27 28  1  0  0  0  0
 28 30  1  0  0  0  0
 28 29  1  6  0  0  0
 30 31  1  1  0  0  0
 31 32  1  0  0  0  0
 32 33  1  0  0  0  0
 32 34  2  0  0  0  0
 35 36  1  0  0  0  0
M  END
>  <COMPND>
    UNNAMED

>  <AUTHOR>
    GENERATED BY OPEN BABEL 2.4.90

>  <MASTER>
        0    0    0    0    0    0    0    0   36    0   36    0

