__1lzj_A_rec_5c1l_da8_lig_min.pdb
 OpenBabel10181913263D

 27 28  0  0  1  0  0  0  0  0999 V2000
   17.9140  -11.1170    6.2480 C   0  0  2  0  0  0  0  0  0  0  0  0
   19.2210  -11.4500    5.7840 O   0  0  0  0  0  0  0  0  0  0  0  0
   19.7720  -12.4520    6.5680 C   0  0  1  0  0  0  0  0  0  0  0  0
   18.9890  -13.7530    6.3240 C   0  0  2  0  0  0  0  0  0  0  0  0
   19.0080  -14.1860    4.9410 O   0  0  0  0  0  0  0  0  0  0  0  0
   17.5340  -13.5020    6.7440 C   0  0  0  0  0  0  0  0  0  0  0  0
   16.9960  -12.2870    6.0010 C   0  0  1  0  0  0  0  0  0  0  0  0
   21.2460  -12.6090    6.1620 C   0  0  0  0  0  0  0  0  0  0  0  0
   22.0040  -11.5590    6.8090 O   0  0  0  0  0  0  0  0  0  0  0  0
   17.4410  -10.0870    5.4970 O   0  0  0  0  0  0  0  0  0  0  0  0
   18.0540   -8.8120    5.8960 C   0  0  0  0  0  0  0  0  0  0  0  0
   16.9600   -7.7970    6.2230 C   0  0  0  0  0  0  0  0  0  0  0  0
   15.8800   -8.3110    7.1730 C   0  0  0  0  0  0  0  0  0  0  0  0
   14.9920   -7.1950    7.7850 C   0  0  0  0  0  0  0  0  0  0  0  0
   12.6750   -6.7260    8.7440 C   0  0  0  0  0  0  0  0  0  0  0  0
   13.5070   -7.5620    7.7540 C   0  0  0  0  0  0  0  0  0  0  0  0
   15.6550  -11.9920    6.4760 O   0  0  0  0  0  0  0  0  0  0  0  0
   14.6300  -12.5430    5.6420 C   0  0  2  0  0  0  0  0  0  0  0  0
   14.4870  -11.7640    4.4850 O   0  0  0  0  0  0  0  0  0  0  0  0
   14.0820  -10.3710    4.7150 C   0  0  1  0  0  0  0  0  0  0  0  0
   14.0240   -9.6680    3.3600 C   0  0  0  0  0  0  0  0  0  0  0  0
   12.7630  -10.3610    5.4850 C   0  0  1  0  0  0  0  0  0  0  0  0
   11.7000  -10.8560    4.6690 O   0  0  0  0  0  0  0  0  0  0  0  0
   12.9150  -11.1730    6.7630 C   0  0  1  0  0  0  0  0  0  0  0  0
   11.6700  -11.1490    7.4890 O   0  0  0  0  0  0  0  0  0  0  0  0
   13.3310  -12.5990    6.4350 C   0  0  2  0  0  0  0  0  0  0  0  0
   13.5660  -13.3220    7.6430 O   0  0  0  0  0  0  0  0  0  0  0  0
  1 10  1  6  0  0  0
  1  2  1  0  0  0  0
  1  7  1  0  0  0  0
  2  3  1  0  0  0  0
  3  8  1  6  0  0  0
  3  4  1  0  0  0  0
  4  5  1  6  0  0  0
  4  6  1  0  0  0  0
  6  7  1  0  0  0  0
  7 17  1  1  0  0  0
  8  9  1  0  0  0  0
 10 11  1  0  0  0  0
 11 12  1  0  0  0  0
 12 13  1  0  0  0  0
 13 14  1  0  0  0  0
 14 16  1  0  0  0  0
 15 16  1  0  0  0  0
 18 17  1  1  0  0  0
 18 19  1  0  0  0  0
 18 26  1  0  0  0  0
 19 20  1  0  0  0  0
 20 21  1  6  0  0  0
 20 22  1  0  0  0  0
 22 23  1  6  0  0  0
 22 24  1  0  0  0  0
 24 26  1  0  0  0  0
 24 25  1  6  0  0  0
 26 27  1  1  0  0  0
M  END
>  <COMPND>
    UNNAMED

>  <AUTHOR>
    GENERATED BY OPEN BABEL 2.4.90

>  <MASTER>
        0    0    0    0    0    0    0    0   27    0   27    0

