__1lzj_A_rec_5c1g_da8_lig_min.pdb
 OpenBabel10181905133D

 27 28  0  0  1  0  0  0  0  0999 V2000
   17.9880  -11.1190    6.2400 C   0  0  2  0  0  0  0  0  0  0  0  0
   19.3310  -11.4080    5.8080 O   0  0  0  0  0  0  0  0  0  0  0  0
   19.8050  -12.5460    6.5430 C   0  0  1  0  0  0  0  0  0  0  0  0
   18.9400  -13.7930    6.2990 C   0  0  2  0  0  0  0  0  0  0  0  0
   18.9640  -14.1610    4.9300 O   0  0  0  0  0  0  0  0  0  0  0  0
   17.5230  -13.4270    6.7490 C   0  0  0  0  0  0  0  0  0  0  0  0
   17.0220  -12.2230    5.9050 C   0  0  1  0  0  0  0  0  0  0  0  0
   21.2680  -12.7160    6.1260 C   0  0  0  0  0  0  0  0  0  0  0  0
   22.0440  -11.6650    6.7080 O   0  0  0  0  0  0  0  0  0  0  0  0
   17.4240  -10.0040    5.5820 O   0  0  0  0  0  0  0  0  0  0  0  0
   18.0290   -8.8190    6.0820 C   0  0  0  0  0  0  0  0  0  0  0  0
   16.9030   -7.7940    6.0610 C   0  0  0  0  0  0  0  0  0  0  0  0
   15.9280   -8.2640    7.1540 C   0  0  0  0  0  0  0  0  0  0  0  0
   15.0920   -7.1670    7.8040 C   0  0  0  0  0  0  0  0  0  0  0  0
   12.7650   -6.7780    8.7330 C   0  0  0  0  0  0  0  0  0  0  0  0
   13.6180   -7.5730    7.7420 C   0  0  0  0  0  0  0  0  0  0  0  0
   15.7030  -11.9280    6.3770 O   0  0  0  0  0  0  0  0  0  0  0  0
   14.6710  -12.5620    5.6220 C   0  0  2  0  0  0  0  0  0  0  0  0
   14.5020  -11.7600    4.4230 O   0  0  0  0  0  0  0  0  0  0  0  0
   14.1260  -10.3920    4.7160 C   0  0  1  0  0  0  0  0  0  0  0  0
   13.9990   -9.6160    3.4050 C   0  0  0  0  0  0  0  0  0  0  0  0
   12.7980  -10.3630    5.4760 C   0  0  1  0  0  0  0  0  0  0  0  0
   11.7360  -10.9030    4.6890 O   0  0  0  0  0  0  0  0  0  0  0  0
   12.9800  -11.1410    6.7670 C   0  0  1  0  0  0  0  0  0  0  0  0
   11.7510  -11.1550    7.4930 O   0  0  0  0  0  0  0  0  0  0  0  0
   13.3710  -12.5720    6.4250 C   0  0  2  0  0  0  0  0  0  0  0  0
   13.5400  -13.2840    7.6430 O   0  0  0  0  0  0  0  0  0  0  0  0
  1  7  1  0  0  0  0
  1 10  1  6  0  0  0
  1  2  1  0  0  0  0
  2  3  1  0  0  0  0
  3  4  1  0  0  0  0
  3  8  1  6  0  0  0
  4  5  1  6  0  0  0
  4  6  1  0  0  0  0
  6  7  1  0  0  0  0
  7 17  1  1  0  0  0
  8  9  1  0  0  0  0
 10 11  1  0  0  0  0
 11 12  1  0  0  0  0
 12 13  1  0  0  0  0
 13 14  1  0  0  0  0
 14 16  1  0  0  0  0
 15 16  1  0  0  0  0
 18 17  1  1  0  0  0
 18 19  1  0  0  0  0
 18 26  1  0  0  0  0
 19 20  1  0  0  0  0
 20 21  1  6  0  0  0
 20 22  1  0  0  0  0
 22 23  1  6  0  0  0
 22 24  1  0  0  0  0
 24 26  1  0  0  0  0
 24 25  1  6  0  0  0
 26 27  1  1  0  0  0
M  END
>  <COMPND>
    UNNAMED

>  <AUTHOR>
    GENERATED BY OPEN BABEL 2.4.90

>  <MASTER>
        0    0    0    0    0    0    0    0   27    0   27    0

