__1lzj_A_rec_3v0q_udp_lig_min.pdb
 OpenBabel10181908193D

 25 26  0  0  1  0  0  0  0  0999 V2000
   10.2840  -23.1080    6.0660 C   0  0  1  0  0  0  0  0  0  0  0  0
    9.4030  -22.2590    5.1690 C   0  0  2  0  0  0  0  0  0  0  0  0
    9.4570  -22.8010    3.8640 O   0  0  0  0  0  0  0  0  0  0  0  0
   10.1250  -20.9370    5.1840 C   0  0  1  0  0  0  0  0  0  0  0  0
   11.5750  -21.3870    5.2100 C   0  0  2  0  0  0  0  0  0  0  0  0
   11.5850  -22.5540    6.0140 O   0  0  0  0  0  0  0  0  0  0  0  0
    9.8050  -20.1830    4.0360 O   0  0  0  0  0  0  0  0  0  0  0  0
    9.7630  -23.1570    7.4570 N   0  0  0  0  0  0  0  0  0  0  0  0
    8.7350  -24.0450    7.7150 C   0  0  0  0  0  0  0  0  0  0  0  0
    8.2040  -24.1590    8.9900 N   0  0  0  0  0  0  0  0  0  0  0  0
    8.7080  -23.3840   10.0220 C   0  0  0  0  0  0  0  0  0  0  0  0
    9.7510  -22.4860    9.7620 C   0  0  0  0  0  0  0  0  0  0  0  0
   10.2010  -22.3090    8.4420 C   0  0  0  0  0  0  0  0  0  0  0  0
    8.2790  -24.7270    6.8010 O   0  0  0  0  0  0  0  0  0  0  0  0
    8.2160  -23.5100   11.1510 O   0  0  0  0  0  0  0  0  0  0  0  0
   12.5170  -20.3310    5.7730 C   0  0  0  0  0  0  0  0  0  0  0  0
   11.8520  -19.6910    6.8360 O   0  0  0  0  0  0  0  0  0  0  0  0
   11.7880  -18.1000    6.8120 P   0  0  2  0  0  0  0  0  0  0  0  0
   10.9180  -17.5840    7.8880 O   0  0  0  0  0  0  0  0  0  0  0  0
   11.3670  -17.6790    5.4550 O   0  0  0  0  0  0  0  0  0  0  0  0
   13.3070  -17.6930    7.0510 O   0  0  0  0  0  0  0  0  0  0  0  0
   14.1970  -16.8410    6.0080 P   0  0  0  0  0  0  0  0  0  0  0  0
   13.4240  -15.6950    5.4700 O   0  0  0  0  0  0  0  0  0  0  0  0
   14.7070  -17.6540    4.8750 O   0  0  0  0  0  0  0  0  0  0  0  0
   15.3200  -16.3230    6.8210 O   0  0  0  0  0  0  0  0  0  0  0  0
  1  2  1  0  0  0  0
  1  6  1  0  0  0  0
  1  8  1  1  0  0  0
  2  3  1  6  0  0  0
  2  4  1  0  0  0  0
  4  7  1  6  0  0  0
  4  5  1  0  0  0  0
  5 16  1  1  0  0  0
  5  6  1  0  0  0  0
  8  9  1  0  0  0  0
  8 13  1  0  0  0  0
  9 14  2  0  0  0  0
  9 10  1  0  0  0  0
 10 11  1  0  0  0  0
 11 12  1  0  0  0  0
 11 15  2  0  0  0  0
 12 13  2  0  0  0  0
 16 17  1  0  0  0  0
 17 18  1  0  0  0  0
 18 20  2  6  0  0  0
 18 21  1  0  0  0  0
 18 19  1  0  0  0  0
 21 22  1  0  0  0  0
 22 24  2  0  0  0  0
 22 25  1  0  0  0  0
 22 23  1  0  0  0  0
M  END
>  <COMPND>
    UNNAMED

>  <AUTHOR>
    GENERATED BY OPEN BABEL 2.4.90

>  <MASTER>
        0    0    0    0    0    0    0    0   25    0   25    0

