__1lzj_A_rec_5bxc_udp_lig_min.pdb
 OpenBabel10181908323D

 25 26  0  0  1  0  0  0  0  0999 V2000
   10.3420  -23.1660    5.9950 C   0  0  1  0  0  0  0  0  0  0  0  0
    9.4320  -22.3450    5.1110 C   0  0  2  0  0  0  0  0  0  0  0  0
    9.4810  -22.8110    3.7750 O   0  0  0  0  0  0  0  0  0  0  0  0
   10.1280  -21.0200    5.1870 C   0  0  1  0  0  0  0  0  0  0  0  0
   11.5910  -21.4300    5.1850 C   0  0  2  0  0  0  0  0  0  0  0  0
   11.6310  -22.5890    5.9810 O   0  0  0  0  0  0  0  0  0  0  0  0
    9.8040  -20.2210    4.0570 O   0  0  0  0  0  0  0  0  0  0  0  0
    9.8010  -23.1760    7.3590 N   0  0  0  0  0  0  0  0  0  0  0  0
    8.7630  -24.0750    7.6330 C   0  0  0  0  0  0  0  0  0  0  0  0
    8.2570  -24.1440    8.8610 N   0  0  0  0  0  0  0  0  0  0  0  0
    8.7170  -23.3920    9.8580 C   0  0  0  0  0  0  0  0  0  0  0  0
    9.7350  -22.4870    9.6060 C   0  0  0  0  0  0  0  0  0  0  0  0
   10.2690  -22.4150    8.3330 C   0  0  0  0  0  0  0  0  0  0  0  0
    8.3270  -24.7850    6.7700 O   0  0  0  0  0  0  0  0  0  0  0  0
    8.2410  -23.4780   11.0020 O   0  0  0  0  0  0  0  0  0  0  0  0
   12.5570  -20.3870    5.7330 C   0  0  0  0  0  0  0  0  0  0  0  0
   12.0220  -19.7170    6.8240 O   0  0  0  0  0  0  0  0  0  0  0  0
   11.8460  -18.1440    6.8110 P   0  0  1  0  0  0  0  0  0  0  0  0
   11.3040  -17.7250    5.4830 O   0  0  0  0  0  0  0  0  0  0  0  0
   11.1020  -17.8180    8.0460 O   0  0  0  0  0  0  0  0  0  0  0  0
   13.3400  -17.6150    7.0330 O   0  0  0  0  0  0  0  0  0  0  0  0
   14.2940  -16.8180    6.0150 P   0  0  0  0  0  0  0  0  0  0  0  0
   14.7020  -17.7220    4.9340 O   0  0  0  0  0  0  0  0  0  0  0  0
   13.4450  -15.7400    5.4600 O   0  0  0  0  0  0  0  0  0  0  0  0
   15.4390  -16.4520    6.8730 O   0  0  0  0  0  0  0  0  0  0  0  0
  1  2  1  0  0  0  0
  1  6  1  0  0  0  0
  1  8  1  1  0  0  0
  2  3  1  6  0  0  0
  2  4  1  0  0  0  0
  4  7  1  6  0  0  0
  4  5  1  0  0  0  0
  5 16  1  1  0  0  0
  5  6  1  0  0  0  0
  8  9  1  0  0  0  0
  8 13  1  0  0  0  0
  9 14  2  0  0  0  0
  9 10  1  0  0  0  0
 10 11  1  0  0  0  0
 11 12  1  0  0  0  0
 11 15  2  0  0  0  0
 12 13  2  0  0  0  0
 16 17  1  0  0  0  0
 17 18  1  0  0  0  0
 18 19  2  6  0  0  0
 18 21  1  0  0  0  0
 18 20  1  0  0  0  0
 21 22  1  0  0  0  0
 22 23  2  0  0  0  0
 22 25  1  0  0  0  0
 22 24  1  0  0  0  0
M  END
>  <COMPND>
    UNNAMED

>  <AUTHOR>
    GENERATED BY OPEN BABEL 2.4.90

>  <MASTER>
        0    0    0    0    0    0    0    0   25    0   25    0

