__1r7t_A_rec_2riy_bhe_lig_min.pdb
 OpenBabel10181902163D

 28 29  0  0  1  0  0  0  0  0999 V2000
   17.8740  -10.8380    6.1570 C   0  0  2  0  0  0  0  0  0  0  0  0
   19.2110  -11.2130    5.7790 O   0  0  0  0  0  0  0  0  0  0  0  0
   19.6840  -12.3180    6.5320 C   0  0  1  0  0  0  0  0  0  0  0  0
   18.8390  -13.5760    6.2330 C   0  0  2  0  0  0  0  0  0  0  0  0
   18.8670  -13.9320    4.8130 O   0  0  0  0  0  0  0  0  0  0  0  0
   17.3840  -13.2640    6.6400 C   0  0  2  0  0  0  0  0  0  0  0  0
   16.5370  -14.3640    6.2950 O   0  0  0  0  0  0  0  0  0  0  0  0
   16.8920  -11.9870    5.9390 C   0  0  1  0  0  0  0  0  0  0  0  0
   21.9080  -11.4670    6.7660 O   0  0  0  0  0  0  0  0  0  0  0  0
   21.1510  -12.5410    6.1870 C   0  0  0  0  0  0  0  0  0  0  0  0
   17.4610   -9.7290    5.3830 O   0  0  0  0  0  0  0  0  0  0  0  0
   18.5230   -8.7450    5.3430 C   0  0  0  0  0  0  0  0  0  0  0  0
   18.0300   -7.4870    4.6150 C   0  0  0  0  0  0  0  0  0  0  0  0
   17.3710   -6.4980    5.5930 C   0  0  0  0  0  0  0  0  0  0  0  0
   17.1860   -5.1230    4.9280 C   0  0  0  0  0  0  0  0  0  0  0  0
   16.2870   -2.8040    5.2630 C   0  0  0  0  0  0  0  0  0  0  0  0
   16.7670   -4.0810    5.9700 C   0  0  0  0  0  0  0  0  0  0  0  0
   15.6080  -11.5730    6.4510 O   0  0  0  0  0  0  0  0  0  0  0  0
   14.5130  -12.2590    5.7990 C   0  0  1  0  0  0  0  0  0  0  0  0
   13.2000  -11.5030    6.0650 C   0  0  1  0  0  0  0  0  0  0  0  0
   13.0450  -11.2770    7.4940 O   0  0  0  0  0  0  0  0  0  0  0  0
   13.2810  -10.1420    5.3470 C   0  0  2  0  0  0  0  0  0  0  0  0
   12.0630   -9.3890    5.5410 O   0  0  0  0  0  0  0  0  0  0  0  0
   13.5180  -10.3420    3.8350 C   0  0  2  0  0  0  0  0  0  0  0  0
   12.4130  -11.0180    3.2600 O   0  0  0  0  0  0  0  0  0  0  0  0
   14.8060  -11.1480    3.6130 C   0  0  1  0  0  0  0  0  0  0  0  0
   14.7280  -12.3970    4.3790 O   0  0  0  0  0  0  0  0  0  0  0  0
   15.0170  -11.4750    2.1430 C   0  0  0  0  0  0  0  0  0  0  0  0
  1 11  1  6  0  0  0
  1  2  1  0  0  0  0
  1  8  1  0  0  0  0
  2  3  1  0  0  0  0
  3 10  1  6  0  0  0
  3  4  1  0  0  0  0
  4  5  1  6  0  0  0
  4  6  1  0  0  0  0
  6  8  1  0  0  0  0
  6  7  1  6  0  0  0
  8 18  1  1  0  0  0
  9 10  1  0  0  0  0
 11 12  1  0  0  0  0
 12 13  1  0  0  0  0
 13 14  1  0  0  0  0
 14 15  1  0  0  0  0
 15 17  1  0  0  0  0
 16 17  1  0  0  0  0
 19 18  1  6  0  0  0
 19 27  1  0  0  0  0
 19 20  1  0  0  0  0
 20 22  1  0  0  0  0
 20 21  1  1  0  0  0
 22 24  1  0  0  0  0
 22 23  1  6  0  0  0
 24 25  1  1  0  0  0
 24 26  1  0  0  0  0
 26 28  1  6  0  0  0
 26 27  1  0  0  0  0
M  END
>  <COMPND>
    UNNAMED

>  <AUTHOR>
    GENERATED BY OPEN BABEL 2.4.90

>  <MASTER>
        0    0    0    0    0    0    0    0   28    0   28    0

