__1r7t_A_rec_5c4e_4ya_lig_min.pdb
 OpenBabel10181902483D

 28 29  0  0  1  0  0  0  0  0999 V2000
   17.7920  -11.0240    6.2350 C   0  0  2  0  0  0  0  0  0  0  0  0
   19.0850  -11.3690    5.7540 O   0  0  0  0  0  0  0  0  0  0  0  0
   19.6890  -12.3920    6.5390 C   0  0  1  0  0  0  0  0  0  0  0  0
   18.8890  -13.7000    6.3360 C   0  0  2  0  0  0  0  0  0  0  0  0
   18.8490  -14.0800    4.9130 O   0  0  0  0  0  0  0  0  0  0  0  0
   17.4150  -13.4790    6.8000 C   0  0  2  0  0  0  0  0  0  0  0  0
   16.6220  -14.6410    6.4800 O   0  0  0  0  0  0  0  0  0  0  0  0
   16.8140  -12.2220    6.1040 C   0  0  1  0  0  0  0  0  0  0  0  0
   21.9300  -11.5680    6.7020 O   0  0  0  0  0  0  0  0  0  0  0  0
   21.1360  -12.5750    6.0580 C   0  0  0  0  0  0  0  0  0  0  0  0
   17.2830   -9.9820    5.4530 O   0  0  0  0  0  0  0  0  0  0  0  0
   17.8370   -8.7070    5.9120 C   0  0  0  0  0  0  0  0  0  0  0  0
   16.7860   -7.7490    6.4380 C   0  0  0  0  0  0  0  0  0  0  0  0
   15.9590   -8.3390    7.5690 C   0  0  0  0  0  0  0  0  0  0  0  0
   15.3740   -7.2800    8.5230 C   0  0  0  0  0  0  0  0  0  0  0  0
   13.1430   -6.3560    9.3470 C   0  0  0  0  0  0  0  0  0  0  0  0
   13.9220   -7.5990    8.8650 C   0  0  0  0  0  0  0  0  0  0  0  0
   15.5140  -11.8920    6.6910 O   0  0  0  0  0  0  0  0  0  0  0  0
   14.3990  -12.3340    5.9400 C   0  0  1  0  0  0  0  0  0  0  0  0
   13.1800  -12.1990    6.8510 C   0  0  1  0  0  0  0  0  0  0  0  0
   13.4750  -12.7990    8.1240 O   0  0  0  0  0  0  0  0  0  0  0  0
   12.9130  -10.6910    7.0650 C   0  0  2  0  0  0  0  0  0  0  0  0
   11.6910  -10.5490    7.8310 O   0  0  0  0  0  0  0  0  0  0  0  0
   12.7600   -9.9850    5.7350 C   0  0  2  0  0  0  0  0  0  0  0  0
   11.6080  -10.4750    5.0270 O   0  0  0  0  0  0  0  0  0  0  0  0
   14.0150  -10.1370    4.8660 C   0  0  1  0  0  0  0  0  0  0  0  0
   14.2630  -11.5720    4.7520 O   0  0  0  0  0  0  0  0  0  0  0  0
   13.9430   -9.5770    3.4610 C   0  0  0  0  0  0  0  0  0  0  0  0
  1 11  1  6  0  0  0
  1  2  1  0  0  0  0
  1  8  1  0  0  0  0
  2  3  1  0  0  0  0
  3  4  1  0  0  0  0
  3 10  1  6  0  0  0
  4  5  1  6  0  0  0
  4  6  1  0  0  0  0
  6  8  1  0  0  0  0
  6  7  1  6  0  0  0
  8 18  1  1  0  0  0
  9 10  1  0  0  0  0
 11 12  1  0  0  0  0
 12 13  1  0  0  0  0
 13 14  1  0  0  0  0
 14 15  1  0  0  0  0
 15 17  1  0  0  0  0
 16 17  1  0  0  0  0
 19 18  1  1  0  0  0
 19 27  1  0  0  0  0
 19 20  1  0  0  0  0
 20 22  1  0  0  0  0
 20 21  1  1  0  0  0
 22 24  1  0  0  0  0
 22 23  1  1  0  0  0
 24 25  1  6  0  0  0
 24 26  1  0  0  0  0
 26 28  1  6  0  0  0
 26 27  1  0  0  0  0
M  END
>  <COMPND>
    UNNAMED

>  <AUTHOR>
    GENERATED BY OPEN BABEL 2.4.90

>  <MASTER>
        0    0    0    0    0    0    0    0   28    0   28    0

