__1r81_A_rec_4kc4_bhe_lig_min.pdb
 OpenBabel10181901303D

 30 31  0  0  1  0  0  0  0  0999 V2000
   17.8010  -10.8260    6.1140 C   0  0  2  0  0  0  0  0  0  0  0  0
   19.1400  -11.1840    5.7200 O   0  0  0  0  0  0  0  0  0  0  0  0
   19.6810  -12.2360    6.5380 C   0  0  1  0  0  0  0  0  0  0  0  0
   18.8490  -13.5250    6.3380 C   0  0  2  0  0  0  0  0  0  0  0  0
   18.8750  -13.9540    4.9650 O   0  0  0  0  0  0  0  0  0  0  0  0
   17.3960  -13.2210    6.7330 C   0  0  2  0  0  0  0  0  0  0  0  0
   16.5560  -14.3630    6.4990 O   0  0  0  0  0  0  0  0  0  0  0  0
   16.8680  -12.0220    5.9290 C   0  0  1  0  0  0  0  0  0  0  0  0
   21.9740  -11.4050    6.7610 O   0  0  0  0  0  0  0  0  0  0  0  0
   21.1680  -12.4540    6.1990 C   0  0  0  0  0  0  0  0  0  0  0  0
   17.3700   -9.7470    5.2870 O   0  0  0  0  0  0  0  0  0  0  0  0
   18.2360   -8.6140    5.3790 C   0  0  0  0  0  0  0  0  0  0  0  0
   17.8510   -7.6520    4.2560 C   0  0  0  0  0  0  0  0  0  0  0  0
   18.4650   -6.2770    4.5070 C   0  0  0  0  0  0  0  0  0  0  0  0
   19.9210   -6.4430    4.9210 C   0  0  0  0  0  0  0  0  0  0  0  0
   20.6430   -5.0880    4.8510 C   0  0  0  0  0  0  0  0  0  0  0  0
   21.9970   -5.2240    5.5440 C   0  0  0  0  0  0  0  0  0  0  0  0
   23.0810   -4.5720    4.6800 C   0  0  0  0  0  0  0  0  0  0  0  0
   24.4140   -4.5900    5.4280 C   0  0  0  0  0  0  0  0  0  0  0  0
   15.5650  -11.6640    6.3960 O   0  0  0  0  0  0  0  0  0  0  0  0
   14.4920  -12.3050    5.6490 C   0  0  1  0  0  0  0  0  0  0  0  0
   13.1800  -11.6000    5.9820 C   0  0  1  0  0  0  0  0  0  0  0  0
   12.9940  -11.6150    7.4070 O   0  0  0  0  0  0  0  0  0  0  0  0
   13.2740  -10.1450    5.4580 C   0  0  2  0  0  0  0  0  0  0  0  0
   12.0790   -9.4180    5.6950 O   0  0  0  0  0  0  0  0  0  0  0  0
   13.5380  -10.1470    3.9570 C   0  0  2  0  0  0  0  0  0  0  0  0
   12.4210  -10.7470    3.2700 O   0  0  0  0  0  0  0  0  0  0  0  0
   14.8280  -10.9170    3.6940 C   0  0  1  0  0  0  0  0  0  0  0  0
   14.7180  -12.2790    4.2190 O   0  0  0  0  0  0  0  0  0  0  0  0
   15.1710  -10.9490    2.2050 C   0  0  0  0  0  0  0  0  0  0  0  0
  1 11  1  6  0  0  0
  1  2  1  0  0  0  0
  1  8  1  0  0  0  0
  2  3  1  0  0  0  0
  3 10  1  6  0  0  0
  3  4  1  0  0  0  0
  4  5  1  6  0  0  0
  4  6  1  0  0  0  0
  6  8  1  0  0  0  0
  6  7  1  6  0  0  0
  8 20  1  1  0  0  0
  9 10  1  0  0  0  0
 11 12  1  0  0  0  0
 12 13  1  0  0  0  0
 13 14  1  0  0  0  0
 14 15  1  0  0  0  0
 15 16  1  0  0  0  0
 16 17  1  0  0  0  0
 17 18  1  0  0  0  0
 18 19  1  0  0  0  0
 21 20  1  1  0  0  0
 21 29  1  0  0  0  0
 21 22  1  0  0  0  0
 22 24  1  0  0  0  0
 22 23  1  1  0  0  0
 24 26  1  0  0  0  0
 24 25  1  6  0  0  0
 26 27  1  6  0  0  0
 26 28  1  0  0  0  0
 28 30  1  6  0  0  0
 28 29  1  0  0  0  0
M  END
>  <COMPND>
    UNNAMED

>  <AUTHOR>
    GENERATED BY OPEN BABEL 2.4.90

>  <MASTER>
        0    0    0    0    0    0    0    0   30    0   30    0

