__1r81_A_rec_2riy_bhe_lig_min.pdb
 OpenBabel10181911543D

 28 29  0  0  1  0  0  0  0  0999 V2000
   17.8460  -10.8390    6.1040 C   0  0  2  0  0  0  0  0  0  0  0  0
   19.1900  -11.2040    5.7420 O   0  0  0  0  0  0  0  0  0  0  0  0
   19.6910  -12.2530    6.5550 C   0  0  1  0  0  0  0  0  0  0  0  0
   18.8750  -13.5440    6.3320 C   0  0  2  0  0  0  0  0  0  0  0  0
   18.9060  -13.9800    4.9340 O   0  0  0  0  0  0  0  0  0  0  0  0
   17.4140  -13.2440    6.7270 C   0  0  2  0  0  0  0  0  0  0  0  0
   16.5910  -14.3810    6.4490 O   0  0  0  0  0  0  0  0  0  0  0  0
   16.8900  -12.0200    5.9560 C   0  0  1  0  0  0  0  0  0  0  0  0
   21.9050  -11.3770    6.7930 O   0  0  0  0  0  0  0  0  0  0  0  0
   21.1620  -12.4620    6.2160 C   0  0  0  0  0  0  0  0  0  0  0  0
   17.4060   -9.7850    5.2700 O   0  0  0  0  0  0  0  0  0  0  0  0
   18.2760   -8.6390    5.4380 C   0  0  0  0  0  0  0  0  0  0  0  0
   18.0640   -7.6590    4.2760 C   0  0  0  0  0  0  0  0  0  0  0  0
   18.8390   -6.3490    4.5030 C   0  0  0  0  0  0  0  0  0  0  0  0
   18.0000   -5.1410    4.0500 C   0  0  0  0  0  0  0  0  0  0  0  0
   16.5520   -3.2800    4.9080 C   0  0  0  0  0  0  0  0  0  0  0  0
   17.0400   -4.7130    5.1660 C   0  0  0  0  0  0  0  0  0  0  0  0
   15.5980  -11.6070    6.4490 O   0  0  0  0  0  0  0  0  0  0  0  0
   14.5120  -12.2260    5.7210 C   0  0  1  0  0  0  0  0  0  0  0  0
   13.1950  -11.5000    6.0440 C   0  0  1  0  0  0  0  0  0  0  0  0
   13.0230  -11.4160    7.4860 O   0  0  0  0  0  0  0  0  0  0  0  0
   13.2830  -10.0750    5.4640 C   0  0  2  0  0  0  0  0  0  0  0  0
   12.0620   -9.3450    5.7170 O   0  0  0  0  0  0  0  0  0  0  0  0
   13.5380  -10.1260    3.9430 C   0  0  2  0  0  0  0  0  0  0  0  0
   12.4400  -10.7430    3.2920 O   0  0  0  0  0  0  0  0  0  0  0  0
   14.8290  -10.9050    3.6580 C   0  0  1  0  0  0  0  0  0  0  0  0
   14.7440  -12.2240    4.2960 O   0  0  0  0  0  0  0  0  0  0  0  0
   15.0570  -11.0870    2.1650 C   0  0  0  0  0  0  0  0  0  0  0  0
  1 11  1  6  0  0  0
  1  2  1  0  0  0  0
  1  8  1  0  0  0  0
  2  3  1  0  0  0  0
  3 10  1  6  0  0  0
  3  4  1  0  0  0  0
  4  5  1  6  0  0  0
  4  6  1  0  0  0  0
  6  8  1  0  0  0  0
  6  7  1  6  0  0  0
  8 18  1  1  0  0  0
  9 10  1  0  0  0  0
 11 12  1  0  0  0  0
 12 13  1  0  0  0  0
 13 14  1  0  0  0  0
 14 15  1  0  0  0  0
 15 17  1  0  0  0  0
 16 17  1  0  0  0  0
 19 18  1  1  0  0  0
 19 27  1  0  0  0  0
 19 20  1  0  0  0  0
 20 22  1  0  0  0  0
 20 21  1  1  0  0  0
 22 24  1  0  0  0  0
 22 23  1  6  0  0  0
 24 25  1  6  0  0  0
 24 26  1  0  0  0  0
 26 28  1  6  0  0  0
 26 27  1  0  0  0  0
M  END
>  <COMPND>
    UNNAMED

>  <AUTHOR>
    GENERATED BY OPEN BABEL 2.4.90

>  <MASTER>
        0    0    0    0    0    0    0    0   28    0   28    0

