__1r81_A_rec_2rj7_da8_lig_min.pdb
 OpenBabel10181911293D

 27 28  0  0  1  0  0  0  0  0999 V2000
   17.8290  -10.9760    6.2390 C   0  0  2  0  0  0  0  0  0  0  0  0
   19.1720  -11.2840    5.8000 O   0  0  0  0  0  0  0  0  0  0  0  0
   19.7260  -12.4010    6.5090 C   0  0  1  0  0  0  0  0  0  0  0  0
   18.9020  -13.6830    6.2530 C   0  0  2  0  0  0  0  0  0  0  0  0
   18.8700  -14.0050    4.8480 O   0  0  0  0  0  0  0  0  0  0  0  0
   17.4850  -13.4460    6.7400 C   0  0  0  0  0  0  0  0  0  0  0  0
   16.9220  -12.1960    6.0210 C   0  0  1  0  0  0  0  0  0  0  0  0
   21.2340  -12.5690    6.1690 C   0  0  0  0  0  0  0  0  0  0  0  0
   21.9520  -11.4380    6.7340 O   0  0  0  0  0  0  0  0  0  0  0  0
   17.3170   -9.9030    5.4470 O   0  0  0  0  0  0  0  0  0  0  0  0
   18.1460   -8.8030    5.4590 C   0  0  0  0  0  0  0  0  0  0  0  0
   18.3470   -6.3600    4.4080 C   0  0  0  0  0  0  0  0  0  0  0  0
   17.4910   -7.5950    4.7830 C   0  0  0  0  0  0  0  0  0  0  0  0
   19.8490   -6.3590    4.6690 C   0  0  0  0  0  0  0  0  0  0  0  0
   21.9550   -5.0410    5.0850 C   0  0  0  0  0  0  0  0  0  0  0  0
   20.4460   -4.9300    4.8530 C   0  0  0  0  0  0  0  0  0  0  0  0
   15.6290  -11.9100    6.5220 O   0  0  0  0  0  0  0  0  0  0  0  0
   14.5900  -12.4730    5.6960 C   0  0  2  0  0  0  0  0  0  0  0  0
   14.4660  -11.8520    4.4040 O   0  0  0  0  0  0  0  0  0  0  0  0
   14.1260  -10.4170    4.4710 C   0  0  1  0  0  0  0  0  0  0  0  0
   14.0980   -9.8240    3.0710 C   0  0  0  0  0  0  0  0  0  0  0  0
   12.7820  -10.2160    5.2150 C   0  0  1  0  0  0  0  0  0  0  0  0
   11.6900  -10.7190    4.4420 O   0  0  0  0  0  0  0  0  0  0  0  0
   12.8510  -10.8860    6.6260 C   0  0  1  0  0  0  0  0  0  0  0  0
   11.5950  -10.7530    7.3530 O   0  0  0  0  0  0  0  0  0  0  0  0
   13.2270  -12.3710    6.4720 C   0  0  2  0  0  0  0  0  0  0  0  0
   13.3600  -12.9170    7.7630 O   0  0  0  0  0  0  0  0  0  0  0  0
  1 10  1  6  0  0  0
  1  2  1  0  0  0  0
  1  7  1  0  0  0  0
  2  3  1  0  0  0  0
  3  4  1  0  0  0  0
  3  8  1  6  0  0  0
  4  5  1  6  0  0  0
  4  6  1  0  0  0  0
  6  7  1  0  0  0  0
  7 17  1  1  0  0  0
  8  9  1  0  0  0  0
 10 11  1  0  0  0  0
 11 13  1  0  0  0  0
 12 13  2  0  0  0  0
 12 14  1  0  0  0  0
 14 16  1  0  0  0  0
 15 16  1  0  0  0  0
 18 17  1  1  0  0  0
 18 19  1  0  0  0  0
 18 26  1  0  0  0  0
 19 20  1  0  0  0  0
 20 21  1  6  0  0  0
 20 22  1  0  0  0  0
 22 23  1  6  0  0  0
 22 24  1  0  0  0  0
 24 26  1  0  0  0  0
 24 25  1  6  0  0  0
 26 27  1  1  0  0  0
M  END
>  <COMPND>
    UNNAMED

>  <AUTHOR>
    GENERATED BY OPEN BABEL 2.4.90

>  <MASTER>
        0    0    0    0    0    0    0    0   27    0   27    0

