__1r81_A_rec_5c1l_da8_lig_min.pdb
 OpenBabel10181904533D

 27 28  0  0  1  0  0  0  0  0999 V2000
   18.0120  -10.8250    6.2230 C   0  0  2  0  0  0  0  0  0  0  0  0
   19.2930  -11.2720    5.7850 O   0  0  0  0  0  0  0  0  0  0  0  0
   19.7270  -12.3330    6.5650 C   0  0  1  0  0  0  0  0  0  0  0  0
   18.8310  -13.5510    6.2800 C   0  0  2  0  0  0  0  0  0  0  0  0
   18.8460  -13.9640    4.8920 O   0  0  0  0  0  0  0  0  0  0  0  0
   17.3960  -13.1700    6.6690 C   0  0  0  0  0  0  0  0  0  0  0  0
   16.9940  -11.8990    5.9330 C   0  0  1  0  0  0  0  0  0  0  0  0
   21.1890  -12.6230    6.1930 C   0  0  0  0  0  0  0  0  0  0  0  0
   21.9990  -11.5150    6.6560 O   0  0  0  0  0  0  0  0  0  0  0  0
   17.6570   -9.7430    5.4770 O   0  0  0  0  0  0  0  0  0  0  0  0
   18.6030   -8.6350    5.6640 C   0  0  0  0  0  0  0  0  0  0  0  0
   18.6000   -7.7440    4.4230 C   0  0  0  0  0  0  0  0  0  0  0  0
   17.2740   -7.7130    3.6670 C   0  0  0  0  0  0  0  0  0  0  0  0
   16.7740   -6.2850    3.3210 C   0  0  0  0  0  0  0  0  0  0  0  0
   16.8700   -4.2540    4.8620 C   0  0  0  0  0  0  0  0  0  0  0  0
   17.6600   -5.2020    3.9410 C   0  0  0  0  0  0  0  0  0  0  0  0
   15.6750  -11.4850    6.3800 O   0  0  0  0  0  0  0  0  0  0  0  0
   14.6140  -12.1470    5.6830 C   0  0  2  0  0  0  0  0  0  0  0  0
   14.8530  -12.1080    4.3030 O   0  0  0  0  0  0  0  0  0  0  0  0
   14.9140  -10.7630    3.7150 C   0  0  1  0  0  0  0  0  0  0  0  0
   15.2280  -10.9130    2.2290 C   0  0  0  0  0  0  0  0  0  0  0  0
   13.6040  -10.0360    4.0110 C   0  0  1  0  0  0  0  0  0  0  0  0
   12.5230  -10.6330    3.2920 O   0  0  0  0  0  0  0  0  0  0  0  0
   13.3490  -10.0380    5.5110 C   0  0  1  0  0  0  0  0  0  0  0  0
   12.1170   -9.3410    5.7830 O   0  0  0  0  0  0  0  0  0  0  0  0
   13.2970  -11.4660    6.0350 C   0  0  2  0  0  0  0  0  0  0  0  0
   13.1580  -11.4520    7.4550 O   0  0  0  0  0  0  0  0  0  0  0  0
  1 10  1  6  0  0  0
  1  2  1  0  0  0  0
  1  7  1  0  0  0  0
  2  3  1  0  0  0  0
  3  8  1  6  0  0  0
  3  4  1  0  0  0  0
  4  5  1  6  0  0  0
  4  6  1  0  0  0  0
  6  7  1  0  0  0  0
  7 17  1  1  0  0  0
  8  9  1  0  0  0  0
 10 11  1  0  0  0  0
 11 12  1  0  0  0  0
 12 13  1  0  0  0  0
 13 14  1  0  0  0  0
 14 16  1  0  0  0  0
 15 16  1  0  0  0  0
 18 17  1  1  0  0  0
 18 19  1  0  0  0  0
 18 26  1  0  0  0  0
 19 20  1  0  0  0  0
 20 21  1  6  0  0  0
 20 22  1  0  0  0  0
 22 23  1  6  0  0  0
 22 24  1  0  0  0  0
 24 26  1  0  0  0  0
 24 25  1  6  0  0  0
 26 27  1  1  0  0  0
M  END
>  <COMPND>
    UNNAMED

>  <AUTHOR>
    GENERATED BY OPEN BABEL 2.4.90

>  <MASTER>
        0    0    0    0    0    0    0    0   27    0   27    0

