__1r82_A_rec_1zi5_dr3_lig_min.pdb
 OpenBabel10181901553D

 36 38  0  0  1  0  0  0  0  0999 V2000
   16.5820  -12.6610    5.8550 C   0  0  2  0  0  0  0  0  0  0  0  0
   17.0780  -14.0580    6.2350 C   0  0  1  0  0  0  0  0  0  0  0  0
   16.2940  -15.0460    5.5620 O   0  0  0  0  0  0  0  0  0  0  0  0
   18.5520  -14.2290    5.8600 C   0  0  1  0  0  0  0  0  0  0  0  0
   18.6950  -14.1680    4.4380 O   0  0  0  0  0  0  0  0  0  0  0  0
   19.3720  -13.1100    6.5090 C   0  0  2  0  0  0  0  0  0  0  0  0
   18.8530  -11.8370    6.0900 O   0  0  0  0  0  0  0  0  0  0  0  0
   17.4930  -11.6390    6.5180 C   0  0  1  0  0  0  0  0  0  0  0  0
   20.8450  -13.2230    6.1050 C   0  0  0  0  0  0  0  0  0  0  0  0
   21.5190  -12.0010    6.4180 O   0  0  0  0  0  0  0  0  0  0  0  0
   15.2370  -12.4570    6.3200 O   0  0  0  0  0  0  0  0  0  0  0  0
   12.9620  -14.0300    6.8500 O   0  0  0  0  0  0  0  0  0  0  0  0
   12.9020  -12.9490    5.9170 C   0  0  1  0  0  0  0  0  0  0  0  0
   12.4120  -11.6770    6.6150 C   0  0  2  0  0  0  0  0  0  0  0  0
   11.0750  -11.8710    7.0820 O   0  0  0  0  0  0  0  0  0  0  0  0
   12.4510  -10.4930    5.6450 C   0  0  2  0  0  0  0  0  0  0  0  0
   11.4860  -10.6890    4.6100 O   0  0  0  0  0  0  0  0  0  0  0  0
   13.8520  -10.3720    5.0370 C   0  0  2  0  0  0  0  0  0  0  0  0
   13.9020   -9.2140    4.0400 C   0  0  0  0  0  0  0  0  0  0  0  0
   14.2100  -11.5990    4.3790 O   0  0  0  0  0  0  0  0  0  0  0  0
   14.2770  -12.7170    5.2840 C   0  0  1  0  0  0  0  0  0  0  0  0
   17.0620  -10.3240    6.1360 O   0  0  0  0  0  0  0  0  0  0  0  0
   17.7330   -9.3350    6.9300 C   0  0  1  0  0  0  0  0  0  0  0  0
   18.4760   -8.3320    6.0440 C   0  0  2  0  0  0  0  0  0  0  0  0
   19.4950   -9.0150    5.3080 O   0  0  0  0  0  0  0  0  0  0  0  0
   19.1080   -7.2350    6.9030 C   0  0  2  0  0  0  0  0  0  0  0  0
   18.0990   -6.5840    7.6940 O   0  0  0  0  0  0  0  0  0  0  0  0
   17.4610   -7.4880    8.6120 C   0  0  1  0  0  0  0  0  0  0  0  0
   16.5160   -6.7760    9.4130 O   0  0  0  0  0  0  0  0  0  0  0  0
   16.7430   -8.5920    7.8310 C   0  0  2  0  0  0  0  0  0  0  0  0
   16.0930   -9.5320    8.7580 N   0  0  0  0  0  0  0  0  0  0  0  0
   14.7820   -9.7620    8.7810 C   0  0  0  0  0  0  0  0  0  0  0  0
   13.8870   -8.6070    8.3240 C   0  0  0  0  0  0  0  0  0  0  0  0
   14.2860  -10.6590    9.6740 O   0  0  0  0  0  0  0  0  0  0  0  0
   19.7930   -6.2010    6.0070 C   0  0  0  0  0  0  0  0  0  0  0  0
   18.8040   -5.4410    5.3090 O   0  0  0  0  0  0  0  0  0  0  0  0
  1  8  1  0  0  0  0
  1 11  1  1  0  0  0
  1  2  1  0  0  0  0
  2  3  1  6  0  0  0
  2  4  1  0  0  0  0
  4  5  1  6  0  0  0
  4  6  1  0  0  0  0
  6  7  1  0  0  0  0
  6  9  1  6  0  0  0
  7  8  1  0  0  0  0
  8 22  1  6  0  0  0
  9 10  1  0  0  0  0
 13 12  1  1  0  0  0
 13 21  1  0  0  0  0
 13 14  1  0  0  0  0
 14 16  1  0  0  0  0
 14 15  1  6  0  0  0
 16 17  1  6  0  0  0
 16 18  1  0  0  0  0
 18 19  1  6  0  0  0
 18 20  1  0  0  0  0
 20 21  1  0  0  0  0
 21 11  1  1  0  0  0
 23 22  1  6  0  0  0
 23 24  1  0  0  0  0
 23 30  1  0  0  0  0
 24 25  1  1  0  0  0
 24 26  1  0  0  0  0
 26 35  1  6  0  0  0
 26 27  1  0  0  0  0
 27 28  1  0  0  0  0
 28 30  1  0  0  0  0
 28 29  1  6  0  0  0
 30 31  1  1  0  0  0
 31 32  1  0  0  0  0
 32 33  1  0  0  0  0
 32 34  2  0  0  0  0
 35 36  1  0  0  0  0
M  END
>  <COMPND>
    UNNAMED

>  <AUTHOR>
    GENERATED BY OPEN BABEL 2.4.90

>  <MASTER>
        0    0    0    0    0    0    0    0   36    0   36    0

