__1r82_A_rec_1zj1_nlc_lig_min.pdb
 OpenBabel10181912443D

 26 27  0  0  1  0  0  0  0  0999 V2000
   17.1220   -6.7090    7.7230 C   0  0  2  0  0  0  0  0  0  0  0  0
   15.9480   -6.3450    6.9900 O   0  0  0  0  0  0  0  0  0  0  0  0
   18.1970   -7.2170    6.7580 C   0  0  1  0  0  0  0  0  0  0  0  0
   17.7350   -8.5170    6.0960 C   0  0  1  0  0  0  0  0  0  0  0  0
   18.8010   -9.0540    5.3090 O   0  0  0  0  0  0  0  0  0  0  0  0
   17.3250   -9.5430    7.1560 C   0  0  1  0  0  0  0  0  0  0  0  0
   16.2840   -8.9230    8.0770 C   0  0  2  0  0  0  0  0  0  0  0  0
   16.8030   -7.7280    8.6870 O   0  0  0  0  0  0  0  0  0  0  0  0
   18.4320   -6.2020    5.7220 N   0  0  0  0  0  0  0  0  0  0  0  0
   19.3850   -5.2800    5.8290 C   0  0  0  0  0  0  0  0  0  0  0  0
   19.4700   -4.3030    4.6540 C   0  0  0  0  0  0  0  0  0  0  0  0
   20.1520   -5.1860    6.7870 O   0  0  0  0  0  0  0  0  0  0  0  0
   15.8810   -9.9130    9.1730 C   0  0  0  0  0  0  0  0  0  0  0  0
   17.0050  -10.1940   10.0120 O   0  0  0  0  0  0  0  0  0  0  0  0
   16.8050  -10.7180    6.5170 O   0  0  0  0  0  0  0  0  0  0  0  0
   16.7770  -13.1300    6.5830 C   0  0  2  0  0  0  0  0  0  0  0  0
   15.5510  -13.1400    7.3200 O   0  0  0  0  0  0  0  0  0  0  0  0
   17.6050  -14.3700    6.9300 C   0  0  1  0  0  0  0  0  0  0  0  0
   16.9010  -15.5390    6.5060 O   0  0  0  0  0  0  0  0  0  0  0  0
   18.9600  -14.3020    6.2210 C   0  0  2  0  0  0  0  0  0  0  0  0
   19.6530  -12.9850    6.5790 C   0  0  2  0  0  0  0  0  0  0  0  0
   17.5730  -11.8650    6.9100 C   0  0  1  0  0  0  0  0  0  0  0  0
   18.8200  -11.8790    6.1920 O   0  0  0  0  0  0  0  0  0  0  0  0
   18.7480  -14.3610    4.8090 O   0  0  0  0  0  0  0  0  0  0  0  0
   21.0040  -12.8860    5.8650 C   0  0  0  0  0  0  0  0  0  0  0  0
   21.7870  -11.8500    6.4630 O   0  0  0  0  0  0  0  0  0  0  0  0
  1  3  1  0  0  0  0
  1  2  1  6  0  0  0
  1  8  1  0  0  0  0
  3  9  1  6  0  0  0
  3  4  1  0  0  0  0
  4  5  1  1  0  0  0
  4  6  1  0  0  0  0
  6 15  1  6  0  0  0
  6  7  1  0  0  0  0
  7  8  1  0  0  0  0
  7 13  1  1  0  0  0
  9 10  1  0  0  0  0
 10 11  1  0  0  0  0
 10 12  2  0  0  0  0
 13 14  1  0  0  0  0
 16 22  1  0  0  0  0
 16 18  1  0  0  0  0
 16 17  1  1  0  0  0
 18 20  1  0  0  0  0
 18 19  1  6  0  0  0
 20 24  1  6  0  0  0
 20 21  1  0  0  0  0
 21 25  1  6  0  0  0
 21 23  1  0  0  0  0
 22 15  1  6  0  0  0
 22 23  1  0  0  0  0
 25 26  1  0  0  0  0
M  END
>  <COMPND>
    UNNAMED

>  <AUTHOR>
    GENERATED BY OPEN BABEL 2.4.90

>  <MASTER>
        0    0    0    0    0    0    0    0   26    0   26    0

