__1r82_A_rec_2rj4_ad7_lig_min.pdb
 OpenBabel10171923063D

 27 28  0  0  1  0  0  0  0  0999 V2000
   17.6300  -11.2990    6.1420 C   0  0  2  0  0  0  0  0  0  0  0  0
   18.9990  -11.5950    5.8160 O   0  0  0  0  0  0  0  0  0  0  0  0
   19.5210  -12.7250    6.5440 C   0  0  1  0  0  0  0  0  0  0  0  0
   18.6930  -13.9770    6.2310 C   0  0  2  0  0  0  0  0  0  0  0  0
   18.6840  -14.2280    4.8200 O   0  0  0  0  0  0  0  0  0  0  0  0
   17.2460  -13.7370    6.6140 C   0  0  2  0  0  0  0  0  0  0  0  0
   16.4740  -14.9250    6.2210 N   0  0  0  0  0  0  0  0  0  0  0  0
   16.7060  -12.4920    5.8820 C   0  0  1  0  0  0  0  0  0  0  0  0
   20.9780  -12.9160    6.1410 C   0  0  0  0  0  0  0  0  0  0  0  0
   21.7280  -11.7600    6.5210 O   0  0  0  0  0  0  0  0  0  0  0  0
   17.2250  -10.1810    5.3390 O   0  0  0  0  0  0  0  0  0  0  0  0
   17.6670   -8.9500    5.9720 C   0  0  0  0  0  0  0  0  0  0  0  0
   16.6430   -7.8050    5.9510 C   0  0  0  0  0  0  0  0  0  0  0  0
   15.7730   -7.7500    7.2150 C   0  0  0  0  0  0  0  0  0  0  0  0
   15.8510   -6.3760    7.8910 C   0  0  0  0  0  0  0  0  0  0  0  0
   14.1800   -4.7650    8.8850 C   0  0  0  0  0  0  0  0  0  0  0  0
   14.7190   -6.1950    8.9080 C   0  0  0  0  0  0  0  0  0  0  0  0
   15.3910  -12.1390    6.3470 O   0  0  0  0  0  0  0  0  0  0  0  0
   14.3890  -12.3300    5.3130 C   0  0  1  0  0  0  0  0  0  0  0  0
   13.0400  -12.5420    6.0420 C   0  0  0  0  0  0  0  0  0  0  0  0
   14.3520  -11.2460    4.3060 O   0  0  0  0  0  0  0  0  0  0  0  0
   13.8320   -9.9570    4.7640 C   0  0  1  0  0  0  0  0  0  0  0  0
   13.8230   -8.9560    3.6060 C   0  0  0  0  0  0  0  0  0  0  0  0
   12.4480  -10.1600    5.4020 C   0  0  1  0  0  0  0  0  0  0  0  0
   11.5040  -10.6100    4.4160 O   0  0  0  0  0  0  0  0  0  0  0  0
   12.5380  -11.1820    6.5510 C   0  0  1  0  0  0  0  0  0  0  0  0
   11.2610  -11.3280    7.1760 O   0  0  0  0  0  0  0  0  0  0  0  0
  1 11  1  6  0  0  0
  1  2  1  0  0  0  0
  1  8  1  0  0  0  0
  2  3  1  0  0  0  0
  3  9  1  6  0  0  0
  3  4  1  0  0  0  0
  4  5  1  6  0  0  0
  4  6  1  0  0  0  0
  6  8  1  0  0  0  0
  6  7  1  6  0  0  0
  8 18  1  1  0  0  0
  9 10  1  0  0  0  0
 11 12  1  0  0  0  0
 12 13  1  0  0  0  0
 13 14  1  0  0  0  0
 14 15  1  0  0  0  0
 15 17  1  0  0  0  0
 16 17  1  0  0  0  0
 19 18  1  1  0  0  0
 19 21  1  0  0  0  0
 19 20  1  0  0  0  0
 20 26  1  0  0  0  0
 21 22  1  0  0  0  0
 22 23  1  6  0  0  0
 22 24  1  0  0  0  0
 24 25  1  6  0  0  0
 24 26  1  0  0  0  0
 26 27  1  6  0  0  0
M  END
>  <COMPND>
    UNNAMED

>  <AUTHOR>
    GENERATED BY OPEN BABEL 2.4.90

>  <MASTER>
        0    0    0    0    0    0    0    0   27    0   27    0

