__1r82_A_rec_1zi3_nlc_lig_min.pdb
 OpenBabel10171922523D

 26 27  0  0  1  0  0  0  0  0999 V2000
   17.6430   -6.2840    6.5310 C   0  0  2  0  0  0  0  0  0  0  0  0
   17.3900   -5.9460    5.1650 O   0  0  0  0  0  0  0  0  0  0  0  0
   18.9130   -7.1340    6.6280 C   0  0  1  0  0  0  0  0  0  0  0  0
   18.6980   -8.4770    5.9260 C   0  0  1  0  0  0  0  0  0  0  0  0
   19.8520   -9.2970    6.1240 O   0  0  0  0  0  0  0  0  0  0  0  0
   17.4620   -9.1880    6.4830 C   0  0  1  0  0  0  0  0  0  0  0  0
   16.2740   -8.2400    6.3670 C   0  0  2  0  0  0  0  0  0  0  0  0
   16.5300   -7.0140    7.0740 O   0  0  0  0  0  0  0  0  0  0  0  0
   20.0250   -6.4160    5.9870 N   0  0  0  0  0  0  0  0  0  0  0  0
   21.1880   -6.2060    6.5980 C   0  0  0  0  0  0  0  0  0  0  0  0
   22.2180   -5.4330    5.7720 C   0  0  0  0  0  0  0  0  0  0  0  0
   21.4500   -6.5840    7.7390 O   0  0  0  0  0  0  0  0  0  0  0  0
   15.0220   -8.9070    6.9390 C   0  0  0  0  0  0  0  0  0  0  0  0
   15.3780   -9.7300    8.0530 O   0  0  0  0  0  0  0  0  0  0  0  0
   17.1750  -10.3890    5.7480 O   0  0  0  0  0  0  0  0  0  0  0  0
   16.7730  -12.7300    6.1460 C   0  0  2  0  0  0  0  0  0  0  0  0
   15.4840  -12.4660    6.7070 O   0  0  0  0  0  0  0  0  0  0  0  0
   17.3550  -14.0110    6.7510 C   0  0  1  0  0  0  0  0  0  0  0  0
   16.5380  -15.1240    6.3810 O   0  0  0  0  0  0  0  0  0  0  0  0
   18.7780  -14.2290    6.2350 C   0  0  2  0  0  0  0  0  0  0  0  0
   19.6190  -12.9820    6.5180 C   0  0  2  0  0  0  0  0  0  0  0  0
   17.7110  -11.5480    6.4050 C   0  0  1  0  0  0  0  0  0  0  0  0
   19.0170  -11.8430    5.8780 O   0  0  0  0  0  0  0  0  0  0  0  0
   18.7330  -14.4560    4.8230 O   0  0  0  0  0  0  0  0  0  0  0  0
   21.0440  -13.1780    5.9950 C   0  0  0  0  0  0  0  0  0  0  0  0
   21.8020  -11.9870    6.2190 O   0  0  0  0  0  0  0  0  0  0  0  0
  1  2  1  6  0  0  0
  1  3  1  0  0  0  0
  1  8  1  0  0  0  0
  3  9  1  6  0  0  0
  3  4  1  0  0  0  0
  4  5  1  1  0  0  0
  4  6  1  0  0  0  0
  6 15  1  6  0  0  0
  6  7  1  0  0  0  0
  7  8  1  0  0  0  0
  7 13  1  1  0  0  0
  9 10  1  0  0  0  0
 10 11  1  0  0  0  0
 10 12  2  0  0  0  0
 13 14  1  0  0  0  0
 16 22  1  0  0  0  0
 16 17  1  1  0  0  0
 16 18  1  0  0  0  0
 18 20  1  0  0  0  0
 18 19  1  6  0  0  0
 20 24  1  6  0  0  0
 20 21  1  0  0  0  0
 21 23  1  0  0  0  0
 21 25  1  6  0  0  0
 22 15  1  6  0  0  0
 22 23  1  0  0  0  0
 25 26  1  0  0  0  0
M  END
>  <COMPND>
    UNNAMED

>  <AUTHOR>
    GENERATED BY OPEN BABEL 2.4.90

>  <MASTER>
        0    0    0    0    0    0    0    0   26    0   26    0

