__1wt3_A_rec_5c1g_da8_lig_min.pdb
 OpenBabel10181911003D

 27 28  0  0  1  0  0  0  0  0999 V2000
   17.9130  -10.8360    6.1480 C   0  0  2  0  0  0  0  0  0  0  0  0
   19.2470  -11.2340    5.7800 O   0  0  0  0  0  0  0  0  0  0  0  0
   19.6090  -12.3780    6.5670 C   0  0  1  0  0  0  0  0  0  0  0  0
   18.6660  -13.5680    6.3270 C   0  0  2  0  0  0  0  0  0  0  0  0
   18.7160  -13.9820    4.9720 O   0  0  0  0  0  0  0  0  0  0  0  0
   17.2630  -13.0880    6.7070 C   0  0  0  0  0  0  0  0  0  0  0  0
   16.8830  -11.8790    5.8080 C   0  0  1  0  0  0  0  0  0  0  0  0
   21.0710  -12.6650    6.2160 C   0  0  0  0  0  0  0  0  0  0  0  0
   21.8940  -11.6340    6.7670 O   0  0  0  0  0  0  0  0  0  0  0  0
   17.4570   -9.7060    5.4340 O   0  0  0  0  0  0  0  0  0  0  0  0
   18.3700   -8.6350    5.6330 C   0  0  0  0  0  0  0  0  0  0  0  0
   18.1920   -7.7640    4.3980 C   0  0  0  0  0  0  0  0  0  0  0  0
   17.7050   -6.4110    4.9420 C   0  0  0  0  0  0  0  0  0  0  0  0
   17.3670   -5.3610    3.8890 C   0  0  0  0  0  0  0  0  0  0  0  0
   16.4630   -3.1750    4.8020 C   0  0  0  0  0  0  0  0  0  0  0  0
   17.7150   -3.9790    4.4450 C   0  0  0  0  0  0  0  0  0  0  0  0
   15.5720  -11.4750    6.2170 O   0  0  0  0  0  0  0  0  0  0  0  0
   14.5260  -12.2490    5.6280 C   0  0  2  0  0  0  0  0  0  0  0  0
   14.7990  -12.2710    4.2030 O   0  0  0  0  0  0  0  0  0  0  0  0
   14.8170  -10.9460    3.6180 C   0  0  1  0  0  0  0  0  0  0  0  0
   15.1380  -11.0600    2.1270 C   0  0  0  0  0  0  0  0  0  0  0  0
   13.4590  -10.2670    3.8130 C   0  0  1  0  0  0  0  0  0  0  0  0
   12.4200  -10.9790    3.1420 O   0  0  0  0  0  0  0  0  0  0  0  0
   13.1920  -10.1740    5.3050 C   0  0  1  0  0  0  0  0  0  0  0  0
   11.9200   -9.5650    5.5250 O   0  0  0  0  0  0  0  0  0  0  0  0
   13.1770  -11.5810    5.8870 C   0  0  2  0  0  0  0  0  0  0  0  0
   12.9290  -11.4760    7.2830 O   0  0  0  0  0  0  0  0  0  0  0  0
  1  7  1  0  0  0  0
  1 10  1  6  0  0  0
  1  2  1  0  0  0  0
  2  3  1  0  0  0  0
  3  4  1  0  0  0  0
  3  8  1  6  0  0  0
  4  5  1  6  0  0  0
  4  6  1  0  0  0  0
  6  7  1  0  0  0  0
  7 17  1  1  0  0  0
  8  9  1  0  0  0  0
 10 11  1  0  0  0  0
 11 12  1  0  0  0  0
 12 13  1  0  0  0  0
 13 14  1  0  0  0  0
 14 16  1  0  0  0  0
 15 16  1  0  0  0  0
 18 17  1  1  0  0  0
 18 19  1  0  0  0  0
 18 26  1  0  0  0  0
 19 20  1  0  0  0  0
 20 21  1  6  0  0  0
 20 22  1  0  0  0  0
 22 23  1  6  0  0  0
 22 24  1  0  0  0  0
 24 26  1  0  0  0  0
 24 25  1  6  0  0  0
 26 27  1  1  0  0  0
M  END
>  <COMPND>
    UNNAMED

>  <AUTHOR>
    GENERATED BY OPEN BABEL 2.4.90

>  <MASTER>
        0    0    0    0    0    0    0    0   27    0   27    0

