__1wt3_A_rec_3u0x_gti_lig_docked.pdb
 OpenBabel10171908253D

 18 20  0  0  0  0  0  0  0  0999 V2000
   13.6840  -10.7460    1.6640 N   0  0  0  0  0  0  0  0  0  0  0  0
   13.8440  -11.7660    3.6830 N   0  0  0  0  0  0  0  0  0  0  0  0
   12.6330  -12.0270    1.5780 S   0  0  0  0  0  0  0  0  0  0  0  0
   14.2510  -10.7600    2.8870 C   0  0  0  0  0  0  0  0  0  0  0  0
   12.9450  -12.5650    3.1310 C   0  0  0  0  0  0  0  0  0  0  0  0
   11.8550  -16.4180    4.3250 N   0  0  0  0  0  0  0  0  0  0  0  0
   12.3940  -13.6660    3.7650 N   0  0  0  0  0  0  0  0  0  0  0  0
   11.3100  -15.7360    3.1300 C   0  0  0  0  0  0  0  0  0  0  0  0
   13.1480  -15.7750    4.6440 C   0  0  0  0  0  0  0  0  0  0  0  0
   11.0860  -14.2500    3.4020 C   0  0  0  0  0  0  0  0  0  0  0  0
   12.9770  -14.2890    4.9520 C   0  0  0  0  0  0  0  0  0  0  0  0
   11.2110  -16.3160    5.1090 H   0  0  0  0  0  0  0  0  0  0  0  0
   17.0920   -8.0730    4.2960 C   0  0  0  0  0  0  0  0  0  0  0  0
   16.4610   -7.8330    3.0780 C   0  0  0  0  0  0  0  0  0  0  0  0
   16.7780   -9.2010    5.0360 C   0  0  0  0  0  0  0  0  0  0  0  0
   15.5140   -8.7260    2.5930 C   0  0  0  0  0  0  0  0  0  0  0  0
   15.8220  -10.0890    4.5560 C   0  0  0  0  0  0  0  0  0  0  0  0
   15.2000   -9.8530    3.3350 C   0  0  0  0  0  0  0  0  0  0  0  0
  1  3  1  0  0  0  0
  1  4  2  0  0  0  0
  2  5  2  0  0  0  0
  2  4  1  0  0  0  0
  3  5  1  0  0  0  0
  4 18  1  0  0  0  0
  5  7  1  0  0  0  0
  6  9  1  0  0  0  0
  6  8  1  0  0  0  0
  6 12  1  0  0  0  0
  7 11  1  0  0  0  0
  7 10  1  0  0  0  0
  8 10  1  0  0  0  0
  9 11  1  0  0  0  0
 13 14  2  0  0  0  0
 13 15  1  0  0  0  0
 14 16  1  0  0  0  0
 15 17  2  0  0  0  0
 16 18  2  0  0  0  0
 17 18  1  0  0  0  0
M  END
>  <MODEL>
       2

>  <COMPND>
    UNNAMED

>  <AUTHOR>
    GENERATED BY OPEN BABEL 2.4.90

>  <MASTER>
        0    0    0    0    0    0    0    0   18    0   18    0

