__1wt3_A_rec_4y63_bhe_lig_min.pdb
 OpenBabel10181912323D

 30 31  0  0  1  0  0  0  0  0999 V2000
   17.6420  -10.9870    6.1040 C   0  0  2  0  0  0  0  0  0  0  0  0
   19.0450  -11.1680    5.8290 O   0  0  0  0  0  0  0  0  0  0  0  0
   19.5980  -12.2640    6.5750 C   0  0  1  0  0  0  0  0  0  0  0  0
   18.9120  -13.5670    6.1580 C   0  0  2  0  0  0  0  0  0  0  0  0
   19.1110  -13.8070    4.7500 O   0  0  0  0  0  0  0  0  0  0  0  0
   17.4270  -13.4360    6.4320 C   0  0  2  0  0  0  0  0  0  0  0  0
   16.7410  -14.6020    5.9840 O   0  0  0  0  0  0  0  0  0  0  0  0
   16.8920  -12.2390    5.6750 C   0  0  1  0  0  0  0  0  0  0  0  0
   21.6910  -11.2940    7.0430 O   0  0  0  0  0  0  0  0  0  0  0  0
   21.0760  -12.3490    6.2850 C   0  0  0  0  0  0  0  0  0  0  0  0
   17.1940   -9.8490    5.3640 O   0  0  0  0  0  0  0  0  0  0  0  0
   18.1650   -8.7640    5.3070 C   0  0  0  0  0  0  0  0  0  0  0  0
   17.5860   -7.7950    4.3240 C   0  0  0  0  0  0  0  0  0  0  0  0
   18.1330   -6.3650    4.5350 C   0  0  0  0  0  0  0  0  0  0  0  0
   19.6380   -6.3960    4.8100 C   0  0  0  0  0  0  0  0  0  0  0  0
   20.1760   -4.9500    4.8110 C   0  0  0  0  0  0  0  0  0  0  0  0
   21.6690   -4.8950    5.2020 C   0  0  0  0  0  0  0  0  0  0  0  0
   22.3090   -3.6690    4.5640 C   0  0  0  0  0  0  0  0  0  0  0  0
   23.6680   -4.1100    4.0980 C   0  0  0  0  0  0  0  0  0  0  0  0
   15.5110  -12.1090    6.0060 O   0  0  0  0  0  0  0  0  0  0  0  0
   14.6820  -12.4960    4.9190 C   0  0  1  0  0  0  0  0  0  0  0  0
   13.2150  -12.5370    5.3950 C   0  0  1  0  0  0  0  0  0  0  0  0
   13.0850  -13.3040    6.6090 O   0  0  0  0  0  0  0  0  0  0  0  0
   12.7290  -11.1130    5.6260 C   0  0  2  0  0  0  0  0  0  0  0  0
   11.3480  -11.1200    6.0140 O   0  0  0  0  0  0  0  0  0  0  0  0
   12.8900  -10.2770    4.3380 C   0  0  2  0  0  0  0  0  0  0  0  0
   12.0000  -10.7510    3.3370 O   0  0  0  0  0  0  0  0  0  0  0  0
   14.3360  -10.3600    3.8330 C   0  0  1  0  0  0  0  0  0  0  0  0
   14.7060  -11.7840    3.6710 O   0  0  0  0  0  0  0  0  0  0  0  0
   14.5380   -9.6630    2.4920 C   0  0  0  0  0  0  0  0  0  0  0  0
  1 11  1  6  0  0  0
  1  2  1  0  0  0  0
  1  8  1  0  0  0  0
  2  3  1  0  0  0  0
  3 10  1  6  0  0  0
  3  4  1  0  0  0  0
  4  5  1  6  0  0  0
  4  6  1  0  0  0  0
  6  8  1  0  0  0  0
  6  7  1  6  0  0  0
  8 20  1  1  0  0  0
  9 10  1  0  0  0  0
 11 12  1  0  0  0  0
 12 13  1  0  0  0  0
 13 14  1  0  0  0  0
 14 15  1  0  0  0  0
 15 16  1  0  0  0  0
 16 17  1  0  0  0  0
 17 18  1  0  0  0  0
 18 19  1  0  0  0  0
 21 20  1  1  0  0  0
 21 29  1  0  0  0  0
 21 22  1  0  0  0  0
 22 24  1  0  0  0  0
 22 23  1  1  0  0  0
 24 26  1  0  0  0  0
 24 25  1  6  0  0  0
 26 27  1  6  0  0  0
 26 28  1  0  0  0  0
 28 30  1  6  0  0  0
 28 29  1  0  0  0  0
M  END
>  <COMPND>
    UNNAMED

>  <AUTHOR>
    GENERATED BY OPEN BABEL 2.4.90

>  <MASTER>
        0    0    0    0    0    0    0    0   30    0   30    0

