__1wt3_A_rec_4kc4_bhe_lig_min.pdb
 OpenBabel10171923003D

 30 31  0  0  1  0  0  0  0  0999 V2000
   17.5880  -11.0020    6.0820 C   0  0  2  0  0  0  0  0  0  0  0  0
   18.9680  -11.2570    5.7610 O   0  0  0  0  0  0  0  0  0  0  0  0
   19.5290  -12.3010    6.5750 C   0  0  1  0  0  0  0  0  0  0  0  0
   18.8000  -13.6330    6.2800 C   0  0  2  0  0  0  0  0  0  0  0  0
   18.9370  -14.0080    4.8980 O   0  0  0  0  0  0  0  0  0  0  0  0
   17.3090  -13.4400    6.5930 C   0  0  2  0  0  0  0  0  0  0  0  0
   16.5630  -14.6240    6.2690 O   0  0  0  0  0  0  0  0  0  0  0  0
   16.7500  -12.2480    5.7990 C   0  0  1  0  0  0  0  0  0  0  0  0
   21.7470  -11.3510    6.9970 O   0  0  0  0  0  0  0  0  0  0  0  0
   21.0450  -12.4090    6.3220 C   0  0  0  0  0  0  0  0  0  0  0  0
   17.1360   -9.9230    5.2660 O   0  0  0  0  0  0  0  0  0  0  0  0
   18.0240   -8.8050    5.3060 C   0  0  0  0  0  0  0  0  0  0  0  0
   17.5580   -7.8130    4.2400 C   0  0  0  0  0  0  0  0  0  0  0  0
   18.0690   -6.4120    4.5660 C   0  0  0  0  0  0  0  0  0  0  0  0
   19.5690   -6.4690    4.8210 C   0  0  0  0  0  0  0  0  0  0  0  0
   20.1580   -5.0490    4.8020 C   0  0  0  0  0  0  0  0  0  0  0  0
   21.5160   -5.0800    5.5000 C   0  0  0  0  0  0  0  0  0  0  0  0
   22.5330   -4.2850    4.6730 C   0  0  0  0  0  0  0  0  0  0  0  0
   23.8910   -4.3020    5.3750 C   0  0  0  0  0  0  0  0  0  0  0  0
   15.4010  -11.9940    6.1950 O   0  0  0  0  0  0  0  0  0  0  0  0
   14.4180  -12.6230    5.3220 C   0  0  1  0  0  0  0  0  0  0  0  0
   13.0230  -12.2990    5.8490 C   0  0  1  0  0  0  0  0  0  0  0  0
   12.9390  -12.7120    7.2230 O   0  0  0  0  0  0  0  0  0  0  0  0
   12.8100  -10.7690    5.7250 C   0  0  2  0  0  0  0  0  0  0  0  0
   11.5190  -10.3770    6.1630 O   0  0  0  0  0  0  0  0  0  0  0  0
   12.9690  -10.3360    4.2720 C   0  0  2  0  0  0  0  0  0  0  0  0
   11.9400  -10.9500    3.4690 O   0  0  0  0  0  0  0  0  0  0  0  0
   14.3590  -10.7450    3.7960 C   0  0  1  0  0  0  0  0  0  0  0  0
   14.5400  -12.1900    3.9470 O   0  0  0  0  0  0  0  0  0  0  0  0
   14.6030  -10.3280    2.3450 C   0  0  0  0  0  0  0  0  0  0  0  0
  1 11  1  6  0  0  0
  1  2  1  0  0  0  0
  1  8  1  0  0  0  0
  2  3  1  0  0  0  0
  3 10  1  6  0  0  0
  3  4  1  0  0  0  0
  4  5  1  6  0  0  0
  4  6  1  0  0  0  0
  6  8  1  0  0  0  0
  6  7  1  6  0  0  0
  8 20  1  1  0  0  0
  9 10  1  0  0  0  0
 11 12  1  0  0  0  0
 12 13  1  0  0  0  0
 13 14  1  0  0  0  0
 14 15  1  0  0  0  0
 15 16  1  0  0  0  0
 16 17  1  0  0  0  0
 17 18  1  0  0  0  0
 18 19  1  0  0  0  0
 21 20  1  1  0  0  0
 21 29  1  0  0  0  0
 21 22  1  0  0  0  0
 22 24  1  0  0  0  0
 22 23  1  1  0  0  0
 24 26  1  0  0  0  0
 24 25  1  6  0  0  0
 26 27  1  6  0  0  0
 26 28  1  0  0  0  0
 28 30  1  6  0  0  0
 28 29  1  0  0  0  0
M  END
>  <COMPND>
    UNNAMED

>  <AUTHOR>
    GENERATED BY OPEN BABEL 2.4.90

>  <MASTER>
        0    0    0    0    0    0    0    0   30    0   30    0

