__1xz6_A_rec_5c1l_da8_lig_min.pdb
 OpenBabel10181911323D

 27 28  0  0  1  0  0  0  0  0999 V2000
   17.8810  -11.0460    6.2560 C   0  0  2  0  0  0  0  0  0  0  0  0
   19.1310  -11.4200    5.6800 O   0  0  0  0  0  0  0  0  0  0  0  0
   19.7120  -12.4460    6.4090 C   0  0  1  0  0  0  0  0  0  0  0  0
   18.8650  -13.7180    6.2280 C   0  0  2  0  0  0  0  0  0  0  0  0
   18.7500  -14.1410    4.8480 O   0  0  0  0  0  0  0  0  0  0  0  0
   17.4620  -13.4190    6.7740 C   0  0  0  0  0  0  0  0  0  0  0  0
   16.9040  -12.1810    6.0840 C   0  0  1  0  0  0  0  0  0  0  0  0
   21.1380  -12.6520    5.8770 C   0  0  0  0  0  0  0  0  0  0  0  0
   21.9740  -11.5970    6.4120 O   0  0  0  0  0  0  0  0  0  0  0  0
   17.3820   -9.9940    5.5530 O   0  0  0  0  0  0  0  0  0  0  0  0
   17.7350   -8.7160    6.1850 C   0  0  0  0  0  0  0  0  0  0  0  0
   16.4670   -7.8990    6.4330 C   0  0  0  0  0  0  0  0  0  0  0  0
   15.6670   -8.3270    7.6610 C   0  0  0  0  0  0  0  0  0  0  0  0
   14.8910   -7.1700    8.3460 C   0  0  0  0  0  0  0  0  0  0  0  0
   12.6620   -6.4820    9.3770 C   0  0  0  0  0  0  0  0  0  0  0  0
   13.5790   -7.6490    8.9700 C   0  0  0  0  0  0  0  0  0  0  0  0
   15.6200  -11.8420    6.6750 O   0  0  0  0  0  0  0  0  0  0  0  0
   14.5100  -12.3840    5.9510 C   0  0  2  0  0  0  0  0  0  0  0  0
   14.3190  -11.6640    4.7640 O   0  0  0  0  0  0  0  0  0  0  0  0
   14.0010  -10.2400    4.9390 C   0  0  1  0  0  0  0  0  0  0  0  0
   13.8760   -9.6120    3.5530 C   0  0  0  0  0  0  0  0  0  0  0  0
   12.7460  -10.1180    5.8010 C   0  0  1  0  0  0  0  0  0  0  0  0
   11.6020  -10.5990    5.0950 O   0  0  0  0  0  0  0  0  0  0  0  0
   12.9530  -10.8640    7.1100 C   0  0  1  0  0  0  0  0  0  0  0  0
   11.7690  -10.7340    7.9220 O   0  0  0  0  0  0  0  0  0  0  0  0
   13.2730  -12.3270    6.8380 C   0  0  2  0  0  0  0  0  0  0  0  0
   13.5620  -12.9930    8.0660 O   0  0  0  0  0  0  0  0  0  0  0  0
  1 10  1  6  0  0  0
  1  2  1  0  0  0  0
  1  7  1  0  0  0  0
  2  3  1  0  0  0  0
  3  8  1  6  0  0  0
  3  4  1  0  0  0  0
  4  5  1  6  0  0  0
  4  6  1  0  0  0  0
  6  7  1  0  0  0  0
  7 17  1  1  0  0  0
  8  9  1  0  0  0  0
 10 11  1  0  0  0  0
 11 12  1  0  0  0  0
 12 13  1  0  0  0  0
 13 14  1  0  0  0  0
 14 16  1  0  0  0  0
 15 16  1  0  0  0  0
 18 17  1  1  0  0  0
 18 19  1  0  0  0  0
 18 26  1  0  0  0  0
 19 20  1  0  0  0  0
 20 21  1  6  0  0  0
 20 22  1  0  0  0  0
 22 23  1  6  0  0  0
 22 24  1  0  0  0  0
 24 26  1  0  0  0  0
 24 25  1  1  0  0  0
 26 27  1  1  0  0  0
M  END
>  <COMPND>
    UNNAMED

>  <AUTHOR>
    GENERATED BY OPEN BABEL 2.4.90

>  <MASTER>
        0    0    0    0    0    0    0    0   27    0   27    0

