__1xz6_A_rec_5bxc_da8_lig_min.pdb
 OpenBabel10181900003D

 27 28  0  0  1  0  0  0  0  0999 V2000
   17.8520  -11.0290    6.2990 C   0  0  2  0  0  0  0  0  0  0  0  0
   19.1340  -11.3730    5.7260 O   0  0  0  0  0  0  0  0  0  0  0  0
   19.7510  -12.4460    6.4420 C   0  0  1  0  0  0  0  0  0  0  0  0
   18.9050  -13.7360    6.2190 C   0  0  2  0  0  0  0  0  0  0  0  0
   18.7650  -14.0790    4.8020 O   0  0  0  0  0  0  0  0  0  0  0  0
   17.4510  -13.4680    6.7850 C   0  0  0  0  0  0  0  0  0  0  0  0
   16.8650  -12.1950    6.1120 C   0  0  1  0  0  0  0  0  0  0  0  0
   21.1270  -12.6160    5.8430 C   0  0  0  0  0  0  0  0  0  0  0  0
   21.9840  -11.6060    6.4030 O   0  0  0  0  0  0  0  0  0  0  0  0
   17.3450   -9.9370    5.6110 O   0  0  0  0  0  0  0  0  0  0  0  0
   18.3230   -8.8530    5.5360 C   0  0  0  0  0  0  0  0  0  0  0  0
   17.8780   -7.8620    4.4710 C   0  0  0  0  0  0  0  0  0  0  0  0
   18.4720   -6.4670    4.7100 C   0  0  0  0  0  0  0  0  0  0  0  0
   19.9940   -6.4730    4.7630 C   0  0  0  0  0  0  0  0  0  0  0  0
   22.0630   -5.0230    5.0170 C   0  0  0  0  0  0  0  0  0  0  0  0
   20.5530   -5.0290    4.7460 C   0  0  0  0  0  0  0  0  0  0  0  0
   15.5840  -11.8640    6.6810 O   0  0  0  0  0  0  0  0  0  0  0  0
   14.5100  -12.4180    5.9710 C   0  0  2  0  0  0  0  0  0  0  0  0
   14.2940  -11.6740    4.7670 O   0  0  0  0  0  0  0  0  0  0  0  0
   14.0110  -10.2420    4.9700 C   0  0  1  0  0  0  0  0  0  0  0  0
   13.8870   -9.5460    3.6080 C   0  0  0  0  0  0  0  0  0  0  0  0
   12.7830  -10.1120    5.8600 C   0  0  1  0  0  0  0  0  0  0  0  0
   11.6010  -10.5710    5.1680 O   0  0  0  0  0  0  0  0  0  0  0  0
   12.9460  -10.9000    7.1600 C   0  0  1  0  0  0  0  0  0  0  0  0
   11.7700  -10.8210    7.9950 O   0  0  0  0  0  0  0  0  0  0  0  0
   13.2720  -12.3560    6.8770 C   0  0  2  0  0  0  0  0  0  0  0  0
   13.5440  -13.0230    8.1060 O   0  0  0  0  0  0  0  0  0  0  0  0
  1 10  1  6  0  0  0
  1  2  1  0  0  0  0
  1  7  1  0  0  0  0
  2  3  1  0  0  0  0
  3  8  1  6  0  0  0
  3  4  1  0  0  0  0
  4  5  1  6  0  0  0
  4  6  1  0  0  0  0
  6  7  1  0  0  0  0
  7 17  1  1  0  0  0
  8  9  1  0  0  0  0
 10 11  1  0  0  0  0
 11 12  1  0  0  0  0
 12 13  1  0  0  0  0
 13 14  1  0  0  0  0
 14 16  1  0  0  0  0
 15 16  1  0  0  0  0
 18 17  1  1  0  0  0
 18 19  1  0  0  0  0
 18 26  1  0  0  0  0
 19 20  1  0  0  0  0
 20 21  1  6  0  0  0
 20 22  1  0  0  0  0
 22 23  1  6  0  0  0
 22 24  1  0  0  0  0
 24 26  1  0  0  0  0
 24 25  1  6  0  0  0
 26 27  1  1  0  0  0
M  END
>  <COMPND>
    UNNAMED

>  <AUTHOR>
    GENERATED BY OPEN BABEL 2.4.90

>  <MASTER>
        0    0    0    0    0    0    0    0   27    0   27    0

