__1xz6_A_rec_2rj4_ad7_lig_min.pdb
 OpenBabel10181901223D

 27 28  0  0  1  0  0  0  0  0999 V2000
   17.7790  -11.2110    6.3350 C   0  0  2  0  0  0  0  0  0  0  0  0
   19.1050  -11.4370    5.8280 O   0  0  0  0  0  0  0  0  0  0  0  0
   19.7420  -12.5930    6.4090 C   0  0  1  0  0  0  0  0  0  0  0  0
   18.9160  -13.8500    6.1120 C   0  0  2  0  0  0  0  0  0  0  0  0
   18.7430  -14.0100    4.6980 O   0  0  0  0  0  0  0  0  0  0  0  0
   17.5210  -13.6870    6.6800 C   0  0  2  0  0  0  0  0  0  0  0  0
   16.7380  -14.8720    6.3010 N   0  0  0  0  0  0  0  0  0  0  0  0
   16.8630  -12.4160    6.1050 C   0  0  1  0  0  0  0  0  0  0  0  0
   21.1450  -12.7070    5.8230 C   0  0  0  0  0  0  0  0  0  0  0  0
   21.9700  -11.6750    6.3700 O   0  0  0  0  0  0  0  0  0  0  0  0
   17.2500  -10.0580    5.6650 O   0  0  0  0  0  0  0  0  0  0  0  0
   18.3110   -9.0850    5.4700 C   0  0  0  0  0  0  0  0  0  0  0  0
   17.9450   -7.6410    5.8410 C   0  0  0  0  0  0  0  0  0  0  0  0
   16.4480   -7.3370    5.6780 C   0  0  0  0  0  0  0  0  0  0  0  0
   15.8190   -6.8890    7.0030 C   0  0  0  0  0  0  0  0  0  0  0  0
   14.1170   -7.7520    8.6550 C   0  0  0  0  0  0  0  0  0  0  0  0
   15.3570   -8.0940    7.8300 C   0  0  0  0  0  0  0  0  0  0  0  0
   15.6050  -12.1410    6.7470 O   0  0  0  0  0  0  0  0  0  0  0  0
   14.4840  -12.4070    5.8640 C   0  0  1  0  0  0  0  0  0  0  0  0
   13.2120  -12.3830    6.7470 C   0  0  0  0  0  0  0  0  0  0  0  0
   14.4090  -11.5000    4.6970 O   0  0  0  0  0  0  0  0  0  0  0  0
   14.0330  -10.1140    4.9800 C   0  0  1  0  0  0  0  0  0  0  0  0
   13.9650   -9.3150    3.6760 C   0  0  0  0  0  0  0  0  0  0  0  0
   12.7190  -10.0930    5.7750 C   0  0  1  0  0  0  0  0  0  0  0  0
   11.6420  -10.6120    4.9780 O   0  0  0  0  0  0  0  0  0  0  0  0
   12.8650  -10.9200    7.0660 C   0  0  1  0  0  0  0  0  0  0  0  0
   11.6580  -10.8540    7.8290 O   0  0  0  0  0  0  0  0  0  0  0  0
  1 11  1  6  0  0  0
  1  2  1  0  0  0  0
  1  8  1  0  0  0  0
  2  3  1  0  0  0  0
  3  9  1  6  0  0  0
  3  4  1  0  0  0  0
  4  5  1  6  0  0  0
  4  6  1  0  0  0  0
  6  8  1  0  0  0  0
  6  7  1  6  0  0  0
  8 18  1  1  0  0  0
  9 10  1  0  0  0  0
 11 12  1  0  0  0  0
 12 13  1  0  0  0  0
 13 14  1  0  0  0  0
 14 15  1  0  0  0  0
 15 17  1  0  0  0  0
 16 17  1  0  0  0  0
 19 18  1  1  0  0  0
 19 21  1  0  0  0  0
 19 20  1  0  0  0  0
 20 26  1  0  0  0  0
 21 22  1  0  0  0  0
 22 23  1  6  0  0  0
 22 24  1  0  0  0  0
 24 25  1  6  0  0  0
 24 26  1  0  0  0  0
 26 27  1  6  0  0  0
M  END
>  <COMPND>
    UNNAMED

>  <AUTHOR>
    GENERATED BY OPEN BABEL 2.4.90

>  <MASTER>
        0    0    0    0    0    0    0    0   27    0   27    0

