__1zi3_A_rec_1zj3_dr2_lig_min.pdb
 OpenBabel10181912273D

 36 38  0  0  1  0  0  0  0  0999 V2000
   17.8480  -10.9880    6.1810 C   0  0  2  0  0  0  0  0  0  0  0  0
   19.2190  -11.2850    5.8590 O   0  0  0  0  0  0  0  0  0  0  0  0
   19.6910  -12.4460    6.5630 C   0  0  1  0  0  0  0  0  0  0  0  0
   18.8680  -13.6680    6.1450 C   0  0  2  0  0  0  0  0  0  0  0  0
   19.0810  -13.9430    4.7570 O   0  0  0  0  0  0  0  0  0  0  0  0
   17.3820  -13.3920    6.3860 C   0  0  2  0  0  0  0  0  0  0  0  0
   16.6070  -14.4940    5.9060 O   0  0  0  0  0  0  0  0  0  0  0  0
   16.9570  -12.1080    5.6660 C   0  0  1  0  0  0  0  0  0  0  0  0
   21.1700  -12.6780    6.2450 C   0  0  0  0  0  0  0  0  0  0  0  0
   21.9270  -11.5250    6.6180 O   0  0  0  0  0  0  0  0  0  0  0  0
   17.4480   -9.7670    5.5390 O   0  0  0  0  0  0  0  0  0  0  0  0
   20.1850   -8.7730    6.1670 O   0  0  0  0  0  0  0  0  0  0  0  0
   19.0150   -7.9520    6.0010 C   0  0  2  0  0  0  0  0  0  0  0  0
   19.2080   -6.5440    6.5730 C   0  0  2  0  0  0  0  0  0  0  0  0
   17.9090   -5.7380    6.5110 C   0  0  2  0  0  0  0  0  0  0  0  0
   18.1240   -4.5670    7.3030 O   0  0  0  0  0  0  0  0  0  0  0  0
   16.8260   -6.4870    7.0860 O   0  0  0  0  0  0  0  0  0  0  0  0
   16.5410   -7.6670    6.3170 C   0  0  1  0  0  0  0  0  0  0  0  0
   17.7110   -8.6380    6.3870 C   0  0  1  0  0  0  0  0  0  0  0  0
   20.2270   -5.8460    5.7760 N   0  0  0  0  0  0  0  0  0  0  0  0
   21.5190   -5.8290    6.0930 C   0  0  0  0  0  0  0  0  0  0  0  0
   22.4240   -5.1670    5.0520 C   0  0  0  0  0  0  0  0  0  0  0  0
   21.9990   -6.3920    7.0770 O   0  0  0  0  0  0  0  0  0  0  0  0
   15.2730   -8.3350    6.8530 C   0  0  0  0  0  0  0  0  0  0  0  0
   15.6240   -9.3140    7.8350 O   0  0  0  0  0  0  0  0  0  0  0  0
   15.5910  -11.7860    5.9700 O   0  0  0  0  0  0  0  0  0  0  0  0
   14.6900  -12.3670    5.0140 C   0  0  2  0  0  0  0  0  0  0  0  0
   14.9170  -11.8110    3.7060 O   0  0  0  0  0  0  0  0  0  0  0  0
   14.7530  -10.3830    3.6710 C   0  0  1  0  0  0  0  0  0  0  0  0
   15.1000   -9.8570    2.2760 C   0  0  0  0  0  0  0  0  0  0  0  0
   13.3120  -10.0110    4.0350 C   0  0  1  0  0  0  0  0  0  0  0  0
   12.4090  -10.5330    3.0560 O   0  0  0  0  0  0  0  0  0  0  0  0
   12.9640  -10.5810    5.4110 C   0  0  1  0  0  0  0  0  0  0  0  0
   11.5800  -10.3510    5.6870 O   0  0  0  0  0  0  0  0  0  0  0  0
   13.2500  -12.0840    5.4530 C   0  0  2  0  0  0  0  0  0  0  0  0
   13.0290  -12.5920    6.7700 O   0  0  0  0  0  0  0  0  0  0  0  0
  1  8  1  0  0  0  0
  1 11  1  6  0  0  0
  1  2  1  0  0  0  0
  2  3  1  0  0  0  0
  3  4  1  0  0  0  0
  3  9  1  6  0  0  0
  4  5  1  6  0  0  0
  4  6  1  0  0  0  0
  6  8  1  0  0  0  0
  6  7  1  6  0  0  0
  8 26  1  1  0  0  0
  9 10  1  0  0  0  0
 13 12  1  1  0  0  0
 13 19  1  0  0  0  0
 13 14  1  0  0  0  0
 14 20  1  6  0  0  0
 14 15  1  0  0  0  0
 15 17  1  0  0  0  0
 15 16  1  1  0  0  0
 17 18  1  0  0  0  0
 18 19  1  0  0  0  0
 18 24  1  1  0  0  0
 19 11  1  6  0  0  0
 20 21  1  0  0  0  0
 21 22  1  0  0  0  0
 21 23  2  0  0  0  0
 24 25  1  0  0  0  0
 27 26  1  1  0  0  0
 27 28  1  0  0  0  0
 27 35  1  0  0  0  0
 28 29  1  0  0  0  0
 29 30  1  6  0  0  0
 29 31  1  0  0  0  0
 31 32  1  6  0  0  0
 31 33  1  0  0  0  0
 33 35  1  0  0  0  0
 33 34  1  6  0  0  0
 35 36  1  1  0  0  0
M  END
>  <COMPND>
    UNNAMED

>  <AUTHOR>
    GENERATED BY OPEN BABEL 2.4.90

>  <MASTER>
        0    0    0    0    0    0    0    0   36    0   36    0

