__1zi3_A_rec_2rj4_ad7_lig_min.pdb
 OpenBabel10181904123D

 27 28  0  0  1  0  0  0  0  0999 V2000
   17.8000  -11.0250    6.2380 C   0  0  2  0  0  0  0  0  0  0  0  0
   19.1860  -11.2510    5.9300 O   0  0  0  0  0  0  0  0  0  0  0  0
   19.7210  -12.4310    6.5620 C   0  0  1  0  0  0  0  0  0  0  0  0
   18.9400  -13.6690    6.1040 C   0  0  2  0  0  0  0  0  0  0  0  0
   18.9810  -13.7830    4.6760 O   0  0  0  0  0  0  0  0  0  0  0  0
   17.4760  -13.5070    6.4610 C   0  0  2  0  0  0  0  0  0  0  0  0
   16.7520  -14.6720    5.9310 N   0  0  0  0  0  0  0  0  0  0  0  0
   16.9210  -12.2120    5.8340 C   0  0  1  0  0  0  0  0  0  0  0  0
   21.1940  -12.5430    6.1910 C   0  0  0  0  0  0  0  0  0  0  0  0
   21.9160  -11.4660    6.7940 O   0  0  0  0  0  0  0  0  0  0  0  0
   17.3860   -9.8460    5.5330 O   0  0  0  0  0  0  0  0  0  0  0  0
   18.3310   -8.7740    5.7920 C   0  0  0  0  0  0  0  0  0  0  0  0
   18.3420   -7.6500    4.7460 C   0  0  0  0  0  0  0  0  0  0  0  0
   17.1840   -7.7490    3.7420 C   0  0  0  0  0  0  0  0  0  0  0  0
   16.7450   -6.3630    3.2530 C   0  0  0  0  0  0  0  0  0  0  0  0
   15.7500   -4.5860    4.7440 C   0  0  0  0  0  0  0  0  0  0  0  0
   15.4880   -5.8900    3.9920 C   0  0  0  0  0  0  0  0  0  0  0  0
   15.5820  -11.9420    6.2880 O   0  0  0  0  0  0  0  0  0  0  0  0
   14.5910  -12.4170    5.3400 C   0  0  1  0  0  0  0  0  0  0  0  0
   13.2260  -11.8590    5.8140 C   0  0  0  0  0  0  0  0  0  0  0  0
   14.9030  -12.0930    3.9300 O   0  0  0  0  0  0  0  0  0  0  0  0
   14.7890  -10.6840    3.5520 C   0  0  1  0  0  0  0  0  0  0  0  0
   15.1070  -10.5150    2.0640 C   0  0  0  0  0  0  0  0  0  0  0  0
   13.3980  -10.1600    3.9390 C   0  0  1  0  0  0  0  0  0  0  0  0
   12.3800  -10.8300    3.1760 O   0  0  0  0  0  0  0  0  0  0  0  0
   13.1510  -10.3690    5.4440 C   0  0  1  0  0  0  0  0  0  0  0  0
   11.8770   -9.8330    5.8110 O   0  0  0  0  0  0  0  0  0  0  0  0
  1 11  1  6  0  0  0
  1  2  1  0  0  0  0
  1  8  1  0  0  0  0
  2  3  1  0  0  0  0
  3  9  1  6  0  0  0
  3  4  1  0  0  0  0
  4  5  1  6  0  0  0
  4  6  1  0  0  0  0
  6  8  1  0  0  0  0
  6  7  1  6  0  0  0
  8 18  1  1  0  0  0
  9 10  1  0  0  0  0
 11 12  1  0  0  0  0
 12 13  1  0  0  0  0
 13 14  1  0  0  0  0
 14 15  1  0  0  0  0
 15 17  1  0  0  0  0
 16 17  1  0  0  0  0
 19 18  1  1  0  0  0
 19 21  1  0  0  0  0
 19 20  1  0  0  0  0
 20 26  1  0  0  0  0
 21 22  1  0  0  0  0
 22 23  1  6  0  0  0
 22 24  1  0  0  0  0
 24 25  1  6  0  0  0
 24 26  1  0  0  0  0
 26 27  1  6  0  0  0
M  END
>  <COMPND>
    UNNAMED

>  <AUTHOR>
    GENERATED BY OPEN BABEL 2.4.90

>  <MASTER>
        0    0    0    0    0    0    0    0   27    0   27    0

