__1zi4_A_rec_4y64_48c_lig_min.pdb
 OpenBabel10181912243D

 22 23  0  0  1  0  0  0  0  0999 V2000
   11.8680  -24.9130    6.6660 C   0  0  2  0  0  0  0  0  0  0  0  0
   12.8470  -25.0600    5.6170 O   0  0  0  0  0  0  0  0  0  0  0  0
   11.1000  -23.6130    6.3750 C   0  0  2  0  0  0  0  0  0  0  0  0
    9.9530  -23.8380    5.5080 O   0  0  0  0  0  0  0  0  0  0  0  0
   12.1540  -22.8100    5.6940 C   0  0  2  0  0  0  0  0  0  0  0  0
   11.5680  -21.8190    4.8760 O   0  0  0  0  0  0  0  0  0  0  0  0
   12.9200  -23.8090    4.8450 C   0  0  1  0  0  0  0  0  0  0  0  0
   10.4870  -25.6460    8.9260 O   0  0  0  0  0  0  0  0  0  0  0  0
   11.6720  -25.3440    9.0780 C   0  0  0  0  0  0  0  0  0  0  0  0
   12.1730  -25.3770   10.3620 N   0  0  0  0  0  0  0  0  0  0  0  0
   13.5160  -25.0430   10.6540 C   0  0  0  0  0  0  0  0  0  0  0  0
   13.9130  -25.1170   11.8270 O   0  0  0  0  0  0  0  0  0  0  0  0
   14.3410  -24.6330    9.6110 C   0  0  0  0  0  0  0  0  0  0  0  0
   13.8160  -24.5950    8.3100 C   0  0  0  0  0  0  0  0  0  0  0  0
   12.4530  -24.9390    8.0490 N   0  0  0  0  0  0  0  0  0  0  0  0
   14.3120  -23.2400    4.3330 C   0  0  0  0  0  0  0  0  0  0  0  0
   15.3710  -23.2640    5.3730 N   0  0  0  0  0  0  0  0  0  0  0  0
   16.3370  -22.3950    5.8560 C   0  0  0  0  0  0  0  0  0  0  0  0
   17.0560  -22.7790    6.7820 O   0  0  0  0  0  0  0  0  0  0  0  0
   16.7120  -20.9690    5.3320 C   0  0  2  0  0  0  0  0  0  0  0  0
   15.7040  -19.9400    5.5780 N   0  0  0  0  0  0  0  0  0  0  0  0
   17.1980  -21.0230    3.8560 C   0  0  0  0  0  0  0  0  0  0  0  0
  1  3  1  0  0  0  0
  1  2  1  0  0  0  0
  1 15  1  1  0  0  0
  2  7  1  0  0  0  0
  3  4  1  6  0  0  0
  3  5  1  0  0  0  0
  5  6  1  6  0  0  0
  5  7  1  0  0  0  0
  7 16  1  1  0  0  0
  8  9  2  0  0  0  0
  9 15  1  0  0  0  0
  9 10  1  0  0  0  0
 10 11  1  0  0  0  0
 11 13  1  0  0  0  0
 11 12  2  0  0  0  0
 13 14  2  0  0  0  0
 14 15  1  0  0  0  0
 16 17  1  0  0  0  0
 17 18  1  0  0  0  0
 18 20  1  0  0  0  0
 18 19  2  0  0  0  0
 20 21  1  0  0  0  0
 20 22  1  6  0  0  0
M  END
>  <COMPND>
    UNNAMED

>  <AUTHOR>
    GENERATED BY OPEN BABEL 2.4.90

>  <MASTER>
        0    0    0    0    0    0    0    0   22    0   22    0

