__1zi4_A_rec_5c1g_da8_lig_min.pdb
 OpenBabel10181900573D

 27 28  0  0  1  0  0  0  0  0999 V2000
   17.9530  -10.7790    6.1500 C   0  0  2  0  0  0  0  0  0  0  0  0
   19.3280  -10.9790    5.7730 O   0  0  0  0  0  0  0  0  0  0  0  0
   19.8330  -12.1120    6.4950 C   0  0  1  0  0  0  0  0  0  0  0  0
   19.0530  -13.3960    6.1740 C   0  0  2  0  0  0  0  0  0  0  0  0
   19.1600  -13.7180    4.7970 O   0  0  0  0  0  0  0  0  0  0  0  0
   17.5990  -13.1250    6.5670 C   0  0  0  0  0  0  0  0  0  0  0  0
   17.0680  -11.9240    5.7370 C   0  0  1  0  0  0  0  0  0  0  0  0
   21.3210  -12.1850    6.1420 C   0  0  0  0  0  0  0  0  0  0  0  0
   22.0340  -11.2250    6.9250 O   0  0  0  0  0  0  0  0  0  0  0  0
   17.3570   -9.6760    5.4990 O   0  0  0  0  0  0  0  0  0  0  0  0
   18.2910   -8.6070    5.4530 C   0  0  0  0  0  0  0  0  0  0  0  0
   17.6940   -7.6390    4.4420 C   0  0  0  0  0  0  0  0  0  0  0  0
   17.0650   -6.5240    5.2940 C   0  0  0  0  0  0  0  0  0  0  0  0
   16.9390   -5.1660    4.6120 C   0  0  0  0  0  0  0  0  0  0  0  0
   16.3750   -2.7390    5.0780 C   0  0  0  0  0  0  0  0  0  0  0  0
   16.7370   -4.0950    5.6860 C   0  0  0  0  0  0  0  0  0  0  0  0
   15.7140  -11.7190    6.1550 O   0  0  0  0  0  0  0  0  0  0  0  0
   14.7520  -12.3410    5.3030 C   0  0  2  0  0  0  0  0  0  0  0  0
   14.6670  -11.5050    4.1190 O   0  0  0  0  0  0  0  0  0  0  0  0
   14.2520  -10.1500    4.4220 C   0  0  1  0  0  0  0  0  0  0  0  0
   14.2170   -9.3360    3.1270 C   0  0  0  0  0  0  0  0  0  0  0  0
   12.8680  -10.1590    5.0760 C   0  0  1  0  0  0  0  0  0  0  0  0
   11.8780  -10.6860    4.1930 O   0  0  0  0  0  0  0  0  0  0  0  0
   12.9590  -10.9730    6.3540 C   0  0  1  0  0  0  0  0  0  0  0  0
   11.6770  -11.0220    6.9810 O   0  0  0  0  0  0  0  0  0  0  0  0
   13.3940  -12.3890    6.0020 C   0  0  2  0  0  0  0  0  0  0  0  0
   13.4770  -13.1360    7.2080 O   0  0  0  0  0  0  0  0  0  0  0  0
  1  7  1  0  0  0  0
  1 10  1  6  0  0  0
  1  2  1  0  0  0  0
  2  3  1  0  0  0  0
  3  4  1  0  0  0  0
  3  8  1  6  0  0  0
  4  5  1  6  0  0  0
  4  6  1  0  0  0  0
  6  7  1  0  0  0  0
  7 17  1  1  0  0  0
  8  9  1  0  0  0  0
 10 11  1  0  0  0  0
 11 12  1  0  0  0  0
 12 13  1  0  0  0  0
 13 14  1  0  0  0  0
 14 16  1  0  0  0  0
 15 16  1  0  0  0  0
 18 17  1  1  0  0  0
 18 19  1  0  0  0  0
 18 26  1  0  0  0  0
 19 20  1  0  0  0  0
 20 21  1  6  0  0  0
 20 22  1  0  0  0  0
 22 23  1  6  0  0  0
 22 24  1  0  0  0  0
 24 26  1  0  0  0  0
 24 25  1  6  0  0  0
 26 27  1  1  0  0  0
M  END
>  <COMPND>
    UNNAMED

>  <AUTHOR>
    GENERATED BY OPEN BABEL 2.4.90

>  <MASTER>
        0    0    0    0    0    0    0    0   27    0   27    0

