__1zi4_A_rec_2rj1_bhe_lig_min.pdb
 OpenBabel10181913443D

 28 29  0  0  1  0  0  0  0  0999 V2000
   17.8340  -10.9220    6.1810 C   0  0  2  0  0  0  0  0  0  0  0  0
   19.2080  -11.1350    5.7410 O   0  0  0  0  0  0  0  0  0  0  0  0
   19.8200  -12.2080    6.4620 C   0  0  1  0  0  0  0  0  0  0  0  0
   19.0720  -13.5200    6.1720 C   0  0  2  0  0  0  0  0  0  0  0  0
   19.0740  -13.7780    4.7600 O   0  0  0  0  0  0  0  0  0  0  0  0
   17.6110  -13.3650    6.6110 C   0  0  2  0  0  0  0  0  0  0  0  0
   16.8940  -14.5470    6.2680 O   0  0  0  0  0  0  0  0  0  0  0  0
   16.9660  -12.1470    5.9240 C   0  0  1  0  0  0  0  0  0  0  0  0
   22.0890  -11.3090    6.8410 O   0  0  0  0  0  0  0  0  0  0  0  0
   21.3330  -12.2840    6.0850 C   0  0  0  0  0  0  0  0  0  0  0  0
   17.3140   -9.8000    5.5010 O   0  0  0  0  0  0  0  0  0  0  0  0
   17.6730   -8.5820    6.1830 C   0  0  0  0  0  0  0  0  0  0  0  0
   16.4700   -7.7280    6.5890 C   0  0  0  0  0  0  0  0  0  0  0  0
   15.6440   -8.3440    7.7150 C   0  0  0  0  0  0  0  0  0  0  0  0
   14.9370   -7.2640    8.5360 C   0  0  0  0  0  0  0  0  0  0  0  0
   12.6660   -6.3180    9.0190 C   0  0  0  0  0  0  0  0  0  0  0  0
   13.4670   -7.6010    8.7800 C   0  0  0  0  0  0  0  0  0  0  0  0
   15.6470  -11.8700    6.4730 O   0  0  0  0  0  0  0  0  0  0  0  0
   14.5700  -12.3110    5.6440 C   0  0  1  0  0  0  0  0  0  0  0  0
   13.3120  -12.2810    6.5450 C   0  0  1  0  0  0  0  0  0  0  0  0
   13.5600  -12.9630    7.7760 O   0  0  0  0  0  0  0  0  0  0  0  0
   12.9430  -10.8130    6.8650 C   0  0  2  0  0  0  0  0  0  0  0  0
   11.7080  -10.7480    7.6110 O   0  0  0  0  0  0  0  0  0  0  0  0
   12.8290   -9.9870    5.5670 C   0  0  2  0  0  0  0  0  0  0  0  0
   11.7170  -10.4680    4.8000 O   0  0  0  0  0  0  0  0  0  0  0  0
   14.1320  -10.0640    4.7540 C   0  0  1  0  0  0  0  0  0  0  0  0
   14.4350  -11.4690    4.4610 O   0  0  0  0  0  0  0  0  0  0  0  0
   14.0520   -9.2840    3.4440 C   0  0  0  0  0  0  0  0  0  0  0  0
  1 11  1  6  0  0  0
  1  8  1  0  0  0  0
  1  2  1  0  0  0  0
  2  3  1  0  0  0  0
  3  4  1  0  0  0  0
  3 10  1  6  0  0  0
  4  5  1  6  0  0  0
  4  6  1  0  0  0  0
  6  8  1  0  0  0  0
  6  7  1  6  0  0  0
  8 18  1  1  0  0  0
  9 10  1  0  0  0  0
 11 12  1  0  0  0  0
 12 13  1  0  0  0  0
 13 14  1  0  0  0  0
 14 15  1  0  0  0  0
 15 17  1  0  0  0  0
 16 17  1  0  0  0  0
 19 18  1  1  0  0  0
 19 27  1  0  0  0  0
 19 20  1  0  0  0  0
 20 22  1  0  0  0  0
 20 21  1  1  0  0  0
 22 24  1  0  0  0  0
 22 23  1  6  0  0  0
 24 25  1  6  0  0  0
 24 26  1  0  0  0  0
 26 28  1  6  0  0  0
 26 27  1  0  0  0  0
M  END
>  <COMPND>
    UNNAMED

>  <AUTHOR>
    GENERATED BY OPEN BABEL 2.4.90

>  <MASTER>
        0    0    0    0    0    0    0    0   28    0   28    0

