__1zi5_A_rec_5c1g_da8_lig_min.pdb
 OpenBabel10171922543D

 27 28  0  0  1  0  0  0  0  0999 V2000
   18.0490  -10.7470    6.1410 C   0  0  2  0  0  0  0  0  0  0  0  0
   19.3950  -11.1020    5.7720 O   0  0  0  0  0  0  0  0  0  0  0  0
   19.7820  -12.2530    6.5370 C   0  0  1  0  0  0  0  0  0  0  0  0
   18.8720  -13.4610    6.2660 C   0  0  2  0  0  0  0  0  0  0  0  0
   18.9390  -13.8450    4.9030 O   0  0  0  0  0  0  0  0  0  0  0  0
   17.4550  -13.0260    6.6490 C   0  0  0  0  0  0  0  0  0  0  0  0
   17.0480  -11.8080    5.7730 C   0  0  1  0  0  0  0  0  0  0  0  0
   21.2520  -12.4950    6.1880 C   0  0  0  0  0  0  0  0  0  0  0  0
   22.0490  -11.4700    6.7880 O   0  0  0  0  0  0  0  0  0  0  0  0
   17.5670   -9.6140    5.4490 O   0  0  0  0  0  0  0  0  0  0  0  0
   17.6250   -8.4860    6.3120 C   0  0  0  0  0  0  0  0  0  0  0  0
   16.2910   -7.7880    6.0950 C   0  0  0  0  0  0  0  0  0  0  0  0
   15.4810   -8.0890    7.3680 C   0  0  0  0  0  0  0  0  0  0  0  0
   14.3760   -7.0910    7.6960 C   0  0  0  0  0  0  0  0  0  0  0  0
   11.8740   -7.1750    8.0970 C   0  0  0  0  0  0  0  0  0  0  0  0
   13.2250   -7.8390    8.3710 C   0  0  0  0  0  0  0  0  0  0  0  0
   15.7250  -11.4480    6.1830 O   0  0  0  0  0  0  0  0  0  0  0  0
   14.7060  -12.2690    5.6120 C   0  0  2  0  0  0  0  0  0  0  0  0
   14.9250  -12.2400    4.1780 O   0  0  0  0  0  0  0  0  0  0  0  0
   14.8430  -10.9010    3.6280 C   0  0  1  0  0  0  0  0  0  0  0  0
   15.1140  -10.9590    2.1240 C   0  0  0  0  0  0  0  0  0  0  0  0
   13.4550  -10.3110    3.8900 C   0  0  1  0  0  0  0  0  0  0  0  0
   12.4360  -11.0680    3.2380 O   0  0  0  0  0  0  0  0  0  0  0  0
   13.2390  -10.2710    5.3930 C   0  0  1  0  0  0  0  0  0  0  0  0
   11.9420   -9.7460    5.6750 O   0  0  0  0  0  0  0  0  0  0  0  0
   13.3300  -11.6900    5.9370 C   0  0  2  0  0  0  0  0  0  0  0  0
   13.1280  -11.6350    7.3430 O   0  0  0  0  0  0  0  0  0  0  0  0
  1  7  1  0  0  0  0
  1 10  1  6  0  0  0
  1  2  1  0  0  0  0
  2  3  1  0  0  0  0
  3  4  1  0  0  0  0
  3  8  1  6  0  0  0
  4  5  1  6  0  0  0
  4  6  1  0  0  0  0
  6  7  1  0  0  0  0
  7 17  1  1  0  0  0
  8  9  1  0  0  0  0
 10 11  1  0  0  0  0
 11 12  1  0  0  0  0
 12 13  1  0  0  0  0
 13 14  1  0  0  0  0
 14 16  1  0  0  0  0
 15 16  1  0  0  0  0
 18 17  1  1  0  0  0
 18 19  1  0  0  0  0
 18 26  1  0  0  0  0
 19 20  1  0  0  0  0
 20 21  1  6  0  0  0
 20 22  1  0  0  0  0
 22 23  1  6  0  0  0
 22 24  1  0  0  0  0
 24 26  1  0  0  0  0
 24 25  1  6  0  0  0
 26 27  1  1  0  0  0
M  END
>  <COMPND>
    UNNAMED

>  <AUTHOR>
    GENERATED BY OPEN BABEL 2.4.90

>  <MASTER>
        0    0    0    0    0    0    0    0   27    0   27    0

