__1zj0_A_rec_1zj3_dr2_lig_min.pdb
 OpenBabel10181904103D

 36 38  0  0  1  0  0  0  0  0999 V2000
   17.7490  -11.1130    6.3750 C   0  0  2  0  0  0  0  0  0  0  0  0
   19.0950  -11.3960    5.9510 O   0  0  0  0  0  0  0  0  0  0  0  0
   19.6540  -12.5100    6.6660 C   0  0  1  0  0  0  0  0  0  0  0  0
   18.8310  -13.7690    6.3810 C   0  0  2  0  0  0  0  0  0  0  0  0
   18.9330  -14.1090    4.9950 O   0  0  0  0  0  0  0  0  0  0  0  0
   17.3650  -13.5130    6.7350 C   0  0  2  0  0  0  0  0  0  0  0  0
   16.5800  -14.6540    6.3780 O   0  0  0  0  0  0  0  0  0  0  0  0
   16.8460  -12.2760    5.9930 C   0  0  1  0  0  0  0  0  0  0  0  0
   21.1070  -12.7260    6.2340 C   0  0  0  0  0  0  0  0  0  0  0  0
   21.9210  -11.6660    6.7410 O   0  0  0  0  0  0  0  0  0  0  0  0
   17.2650   -9.9350    5.7120 O   0  0  0  0  0  0  0  0  0  0  0  0
   19.9750   -8.8100    6.2270 O   0  0  0  0  0  0  0  0  0  0  0  0
   18.7690   -8.0440    6.0660 C   0  0  2  0  0  0  0  0  0  0  0  0
   18.9190   -6.6100    6.5830 C   0  0  2  0  0  0  0  0  0  0  0  0
   17.5870   -5.8590    6.5300 C   0  0  2  0  0  0  0  0  0  0  0  0
   17.7750   -4.6530    7.2750 O   0  0  0  0  0  0  0  0  0  0  0  0
   16.5510   -6.6300    7.1620 O   0  0  0  0  0  0  0  0  0  0  0  0
   16.2930   -7.8460    6.4420 C   0  0  1  0  0  0  0  0  0  0  0  0
   17.5040   -8.7660    6.5120 C   0  0  1  0  0  0  0  0  0  0  0  0
   19.8870   -5.8990    5.7340 N   0  0  0  0  0  0  0  0  0  0  0  0
   21.1890   -5.8430    5.9990 C   0  0  0  0  0  0  0  0  0  0  0  0
   22.0350   -5.1780    4.9120 C   0  0  0  0  0  0  0  0  0  0  0  0
   21.7220   -6.3740    6.9730 O   0  0  0  0  0  0  0  0  0  0  0  0
   15.0690   -8.5450    7.0370 C   0  0  0  0  0  0  0  0  0  0  0  0
   15.4820   -9.4380    8.0740 O   0  0  0  0  0  0  0  0  0  0  0  0
   15.5040  -11.9690    6.3980 O   0  0  0  0  0  0  0  0  0  0  0  0
   14.5400  -12.6120    5.5500 C   0  0  2  0  0  0  0  0  0  0  0  0
   14.3600  -11.8620    4.3340 O   0  0  0  0  0  0  0  0  0  0  0  0
   13.9240  -10.5120    4.5710 C   0  0  1  0  0  0  0  0  0  0  0  0
   13.8450   -9.7550    3.2440 C   0  0  0  0  0  0  0  0  0  0  0  0
   12.5570  -10.5160    5.2610 C   0  0  1  0  0  0  0  0  0  0  0  0
   11.5740  -11.1000    4.4010 O   0  0  0  0  0  0  0  0  0  0  0  0
   12.6390  -11.3150    6.5640 C   0  0  1  0  0  0  0  0  0  0  0  0
   11.3320  -11.4330    7.1340 O   0  0  0  0  0  0  0  0  0  0  0  0
   13.2070  -12.7110    6.2970 C   0  0  2  0  0  0  0  0  0  0  0  0
   13.3860  -13.4150    7.5280 O   0  0  0  0  0  0  0  0  0  0  0  0
  1  8  1  0  0  0  0
  1 11  1  6  0  0  0
  1  2  1  0  0  0  0
  2  3  1  0  0  0  0
  3  4  1  0  0  0  0
  3  9  1  6  0  0  0
  4  5  1  6  0  0  0
  4  6  1  0  0  0  0
  6  8  1  0  0  0  0
  6  7  1  6  0  0  0
  8 26  1  1  0  0  0
  9 10  1  0  0  0  0
 13 12  1  1  0  0  0
 13 19  1  0  0  0  0
 13 14  1  0  0  0  0
 14 20  1  6  0  0  0
 14 15  1  0  0  0  0
 15 17  1  0  0  0  0
 15 16  1  1  0  0  0
 17 18  1  0  0  0  0
 18 19  1  0  0  0  0
 18 24  1  1  0  0  0
 19 11  1  6  0  0  0
 20 21  1  0  0  0  0
 21 22  1  0  0  0  0
 21 23  2  0  0  0  0
 24 25  1  0  0  0  0
 27 26  1  1  0  0  0
 27 28  1  0  0  0  0
 27 35  1  0  0  0  0
 28 29  1  0  0  0  0
 29 30  1  6  0  0  0
 29 31  1  0  0  0  0
 31 32  1  6  0  0  0
 31 33  1  0  0  0  0
 33 35  1  0  0  0  0
 33 34  1  6  0  0  0
 35 36  1  1  0  0  0
M  END
>  <COMPND>
    UNNAMED

>  <AUTHOR>
    GENERATED BY OPEN BABEL 2.4.90

>  <MASTER>
        0    0    0    0    0    0    0    0   36    0   36    0

