__1zj0_A_rec_2a8u_dr5_lig_min.pdb
 OpenBabel10181909323D

 24 25  0  0  1  0  0  0  0  0999 V2000
   17.3500  -10.2440    5.6690 O   0  0  0  0  0  0  0  0  0  0  0  0
   15.6240  -12.2770    6.7090 O   0  0  0  0  0  0  0  0  0  0  0  0
   16.9220  -12.5650    6.1830 C   0  0  2  0  0  0  0  0  0  0  0  0
   17.4950  -13.8140    6.8600 C   0  0  1  0  0  0  0  0  0  0  0  0
   16.6860  -14.9450    6.5290 O   0  0  0  0  0  0  0  0  0  0  0  0
   18.9270  -14.0590    6.3810 C   0  0  1  0  0  0  0  0  0  0  0  0
   18.9040  -14.3540    4.9800 O   0  0  0  0  0  0  0  0  0  0  0  0
   19.7600  -12.7950    6.6150 C   0  0  2  0  0  0  0  0  0  0  0  0
   19.1650  -11.6950    5.9060 O   0  0  0  0  0  0  0  0  0  0  0  0
   17.8550  -11.3720    6.4010 C   0  0  1  0  0  0  0  0  0  0  0  0
   21.1950  -12.9940    6.1300 C   0  0  0  0  0  0  0  0  0  0  0  0
   21.9670  -11.8320    6.4490 O   0  0  0  0  0  0  0  0  0  0  0  0
   17.5900   -8.9950    6.3390 C   0  0  1  0  0  0  0  0  0  0  0  0
   18.9350   -8.3710    5.9550 C   0  0  2  0  0  0  0  0  0  0  0  0
   20.0040   -9.1820    6.4490 O   0  0  0  0  0  0  0  0  0  0  0  0
   19.0780   -6.9680    6.5510 C   0  0  1  0  0  0  0  0  0  0  0  0
   20.2880   -6.3710    6.0780 O   0  0  0  0  0  0  0  0  0  0  0  0
   17.8880   -6.1070    6.1230 C   0  0  1  0  0  0  0  0  0  0  0  0
   16.6810   -6.7400    6.5790 O   0  0  0  0  0  0  0  0  0  0  0  0
   16.4840   -8.0220    5.9560 C   0  0  2  0  0  0  0  0  0  0  0  0
   15.1240   -8.5880    6.3720 C   0  0  0  0  0  0  0  0  0  0  0  0
   15.2710   -9.3840    7.5510 O   0  0  0  0  0  0  0  0  0  0  0  0
   18.0090   -4.8010    6.7070 O   0  0  0  0  0  0  0  0  0  0  0  0
   17.8720   -3.8050    5.6900 C   0  0  0  0  0  0  0  0  0  0  0  0
  3  2  1  1  0  0  0
  3 10  1  0  0  0  0
  3  4  1  0  0  0  0
  4  6  1  0  0  0  0
  4  5  1  6  0  0  0
  6  7  1  6  0  0  0
  6  8  1  0  0  0  0
  8 11  1  6  0  0  0
  8  9  1  0  0  0  0
  9 10  1  0  0  0  0
 10  1  1  6  0  0  0
 11 12  1  0  0  0  0
 13  1  1  6  0  0  0
 13 20  1  0  0  0  0
 13 14  1  0  0  0  0
 14 15  1  1  0  0  0
 14 16  1  0  0  0  0
 16 18  1  0  0  0  0
 16 17  1  6  0  0  0
 18 19  1  0  0  0  0
 18 23  1  1  0  0  0
 19 20  1  0  0  0  0
 20 21  1  1  0  0  0
 21 22  1  0  0  0  0
 23 24  1  0  0  0  0
M  END
>  <COMPND>
    UNNAMED

>  <AUTHOR>
    GENERATED BY OPEN BABEL 2.4.90

>  <MASTER>
        0    0    0    0    0    0    0    0   24    0   24    0

