__1zj0_A_rec_5c1l_da8_lig_min.pdb
 OpenBabel10171922443D

 27 28  0  0  1  0  0  0  0  0999 V2000
   17.9400  -11.0690    6.2870 C   0  0  2  0  0  0  0  0  0  0  0  0
   19.2410  -11.4410    5.8360 O   0  0  0  0  0  0  0  0  0  0  0  0
   19.7690  -12.4330    6.6480 C   0  0  1  0  0  0  0  0  0  0  0  0
   18.9590  -13.7240    6.4370 C   0  0  2  0  0  0  0  0  0  0  0  0
   18.9730  -14.1950    5.0670 O   0  0  0  0  0  0  0  0  0  0  0  0
   17.5090  -13.4310    6.8470 C   0  0  0  0  0  0  0  0  0  0  0  0
   16.9980  -12.2260    6.0690 C   0  0  1  0  0  0  0  0  0  0  0  0
   21.2400  -12.6330    6.2510 C   0  0  0  0  0  0  0  0  0  0  0  0
   22.0070  -11.5350    6.8040 O   0  0  0  0  0  0  0  0  0  0  0  0
   17.4910  -10.0500    5.5070 O   0  0  0  0  0  0  0  0  0  0  0  0
   17.9570   -8.7500    6.0080 C   0  0  0  0  0  0  0  0  0  0  0  0
   16.7730   -7.7910    6.1240 C   0  0  0  0  0  0  0  0  0  0  0  0
   15.8690   -8.0410    7.3290 C   0  0  0  0  0  0  0  0  0  0  0  0
   14.5440   -7.2330    7.3050 C   0  0  0  0  0  0  0  0  0  0  0  0
   12.1070   -7.3680    8.0490 C   0  0  0  0  0  0  0  0  0  0  0  0
   13.5720   -7.6920    8.3950 C   0  0  0  0  0  0  0  0  0  0  0  0
   15.6620  -11.8900    6.5320 O   0  0  0  0  0  0  0  0  0  0  0  0
   14.6300  -12.3720    5.6650 C   0  0  2  0  0  0  0  0  0  0  0  0
   14.4870  -11.5090    4.5690 O   0  0  0  0  0  0  0  0  0  0  0  0
   14.0920  -10.1340    4.9020 C   0  0  1  0  0  0  0  0  0  0  0  0
   14.0330   -9.3340    3.6030 C   0  0  0  0  0  0  0  0  0  0  0  0
   12.7770  -10.1730    5.6780 C   0  0  1  0  0  0  0  0  0  0  0  0
   11.7070  -10.6000    4.8340 O   0  0  0  0  0  0  0  0  0  0  0  0
   12.9290  -11.0770    6.8920 C   0  0  1  0  0  0  0  0  0  0  0  0
   11.6880  -11.1000    7.6240 O   0  0  0  0  0  0  0  0  0  0  0  0
   13.3340  -12.4780    6.4580 C   0  0  2  0  0  0  0  0  0  0  0  0
   13.5700  -13.2890    7.6080 O   0  0  0  0  0  0  0  0  0  0  0  0
  1 10  1  6  0  0  0
  1  2  1  0  0  0  0
  1  7  1  0  0  0  0
  2  3  1  0  0  0  0
  3  8  1  6  0  0  0
  3  4  1  0  0  0  0
  4  5  1  6  0  0  0
  4  6  1  0  0  0  0
  6  7  1  0  0  0  0
  7 17  1  1  0  0  0
  8  9  1  0  0  0  0
 10 11  1  0  0  0  0
 11 12  1  0  0  0  0
 12 13  1  0  0  0  0
 13 14  1  0  0  0  0
 14 16  1  0  0  0  0
 15 16  1  0  0  0  0
 18 17  1  1  0  0  0
 18 19  1  0  0  0  0
 18 26  1  0  0  0  0
 19 20  1  0  0  0  0
 20 21  1  6  0  0  0
 20 22  1  0  0  0  0
 22 23  1  6  0  0  0
 22 24  1  0  0  0  0
 24 26  1  0  0  0  0
 24 25  1  6  0  0  0
 26 27  1  1  0  0  0
M  END
>  <COMPND>
    UNNAMED

>  <AUTHOR>
    GENERATED BY OPEN BABEL 2.4.90

>  <MASTER>
        0    0    0    0    0    0    0    0   27    0   27    0

