__1zj1_A_rec_2rj4_ad7_lig_min.pdb
 OpenBabel10181901393D

 27 28  0  0  1  0  0  0  0  0999 V2000
   17.9290  -11.1520    6.3420 C   0  0  2  0  0  0  0  0  0  0  0  0
   19.2890  -11.3960    5.9460 O   0  0  0  0  0  0  0  0  0  0  0  0
   19.8820  -12.5220    6.6240 C   0  0  1  0  0  0  0  0  0  0  0  0
   19.0800  -13.7950    6.3250 C   0  0  2  0  0  0  0  0  0  0  0  0
   19.0120  -14.0190    4.9120 O   0  0  0  0  0  0  0  0  0  0  0  0
   17.6470  -13.6100    6.7810 C   0  0  2  0  0  0  0  0  0  0  0  0
   16.8950  -14.8150    6.4000 N   0  0  0  0  0  0  0  0  0  0  0  0
   17.0320  -12.3700    6.1020 C   0  0  1  0  0  0  0  0  0  0  0  0
   21.3230  -12.6570    6.1490 C   0  0  0  0  0  0  0  0  0  0  0  0
   22.1180  -11.6340    6.7550 O   0  0  0  0  0  0  0  0  0  0  0  0
   17.4500  -10.0330    5.5830 O   0  0  0  0  0  0  0  0  0  0  0  0
   17.8100   -8.8010    6.2640 C   0  0  0  0  0  0  0  0  0  0  0  0
   16.6260   -7.9040    6.6530 C   0  0  0  0  0  0  0  0  0  0  0  0
   15.7210   -8.5280    7.7260 C   0  0  0  0  0  0  0  0  0  0  0  0
   14.8720   -7.4650    8.4320 C   0  0  0  0  0  0  0  0  0  0  0  0
   12.3510   -7.4780    8.3190 C   0  0  0  0  0  0  0  0  0  0  0  0
   13.5850   -8.0720    8.9980 C   0  0  0  0  0  0  0  0  0  0  0  0
   15.7300  -12.0700    6.6360 O   0  0  0  0  0  0  0  0  0  0  0  0
   14.6780  -12.3770    5.6840 C   0  0  1  0  0  0  0  0  0  0  0  0
   13.3550  -12.4140    6.4870 C   0  0  0  0  0  0  0  0  0  0  0  0
   14.6360  -11.4660    4.5190 O   0  0  0  0  0  0  0  0  0  0  0  0
   14.1840  -10.0990    4.7860 C   0  0  1  0  0  0  0  0  0  0  0  0
   14.1620   -9.2930    3.4840 C   0  0  0  0  0  0  0  0  0  0  0  0
   12.8240  -10.1390    5.4980 C   0  0  1  0  0  0  0  0  0  0  0  0
   11.8210  -10.6980    4.6330 O   0  0  0  0  0  0  0  0  0  0  0  0
   12.9260  -10.9700    6.7910 C   0  0  1  0  0  0  0  0  0  0  0  0
   11.6730  -10.9610    7.4790 O   0  0  0  0  0  0  0  0  0  0  0  0
  1 11  1  6  0  0  0
  1  2  1  0  0  0  0
  1  8  1  0  0  0  0
  2  3  1  0  0  0  0
  3  9  1  6  0  0  0
  3  4  1  0  0  0  0
  4  5  1  6  0  0  0
  4  6  1  0  0  0  0
  6  8  1  0  0  0  0
  6  7  1  6  0  0  0
  8 18  1  1  0  0  0
  9 10  1  0  0  0  0
 11 12  1  0  0  0  0
 12 13  1  0  0  0  0
 13 14  1  0  0  0  0
 14 15  1  0  0  0  0
 15 17  1  0  0  0  0
 16 17  1  0  0  0  0
 19 18  1  1  0  0  0
 19 21  1  0  0  0  0
 19 20  1  0  0  0  0
 20 26  1  0  0  0  0
 21 22  1  0  0  0  0
 22 23  1  6  0  0  0
 22 24  1  0  0  0  0
 24 25  1  6  0  0  0
 24 26  1  0  0  0  0
 26 27  1  6  0  0  0
M  END
>  <COMPND>
    UNNAMED

>  <AUTHOR>
    GENERATED BY OPEN BABEL 2.4.90

>  <MASTER>
        0    0    0    0    0    0    0    0   27    0   27    0

