__1zj2_A_rec_2rj4_udp_lig_min.pdb
 OpenBabel10181900223D

 25 26  0  0  1  0  0  0  0  0999 V2000
   10.4550  -23.3780    6.1790 C   0  0  1  0  0  0  0  0  0  0  0  0
    9.5810  -22.5840    5.2110 C   0  0  2  0  0  0  0  0  0  0  0  0
    9.7760  -23.1130    3.8920 O   0  0  0  0  0  0  0  0  0  0  0  0
   10.2050  -21.2110    5.3080 C   0  0  1  0  0  0  0  0  0  0  0  0
   11.6970  -21.5700    5.3170 C   0  0  2  0  0  0  0  0  0  0  0  0
   11.7660  -22.7450    6.1670 O   0  0  0  0  0  0  0  0  0  0  0  0
    9.8810  -20.4460    4.1300 O   0  0  0  0  0  0  0  0  0  0  0  0
    9.8760  -23.3840    7.5530 N   0  0  0  0  0  0  0  0  0  0  0  0
    8.8070  -24.2620    7.8250 C   0  0  0  0  0  0  0  0  0  0  0  0
    8.2680  -24.3050    9.1120 N   0  0  0  0  0  0  0  0  0  0  0  0
    8.7570  -23.4880   10.1440 C   0  0  0  0  0  0  0  0  0  0  0  0
    9.8210  -22.6210    9.8800 C   0  0  0  0  0  0  0  0  0  0  0  0
   10.3770  -22.5700    8.5960 C   0  0  0  0  0  0  0  0  0  0  0  0
    8.3480  -24.9850    6.9390 O   0  0  0  0  0  0  0  0  0  0  0  0
    8.2430  -23.5600   11.2660 O   0  0  0  0  0  0  0  0  0  0  0  0
   12.6190  -20.4960    5.9150 C   0  0  0  0  0  0  0  0  0  0  0  0
   11.9860  -19.7580    6.9230 O   0  0  0  0  0  0  0  0  0  0  0  0
   11.8470  -18.1260    6.7690 P   0  0  1  0  0  0  0  0  0  0  0  0
   11.3290  -17.8310    5.3920 O   0  0  0  0  0  0  0  0  0  0  0  0
   11.0910  -17.6390    7.9490 O   0  0  0  0  0  0  0  0  0  0  0  0
   13.3990  -17.6760    6.8790 O   0  0  0  0  0  0  0  0  0  0  0  0
   13.8320  -16.1540    6.6540 P   0  0  0  0  0  0  0  0  0  0  0  0
   12.7980  -15.1970    7.1590 O   0  0  0  0  0  0  0  0  0  0  0  0
   15.2700  -15.9840    7.3500 O   0  0  0  0  0  0  0  0  0  0  0  0
   14.0720  -15.9880    5.1140 O   0  0  0  0  0  0  0  0  0  0  0  0
  1  2  1  0  0  0  0
  1  6  1  0  0  0  0
  1  8  1  1  0  0  0
  2  3  1  6  0  0  0
  2  4  1  0  0  0  0
  4  7  1  6  0  0  0
  4  5  1  0  0  0  0
  5 16  1  1  0  0  0
  5  6  1  0  0  0  0
  8  9  1  0  0  0  0
  8 13  1  0  0  0  0
  9 14  2  0  0  0  0
  9 10  1  0  0  0  0
 10 11  1  0  0  0  0
 11 12  1  0  0  0  0
 11 15  2  0  0  0  0
 12 13  2  0  0  0  0
 16 17  1  0  0  0  0
 17 18  1  0  0  0  0
 18 19  2  6  0  0  0
 18 21  1  0  0  0  0
 18 20  1  0  0  0  0
 21 22  1  0  0  0  0
 22 25  2  0  0  0  0
 22 24  1  0  0  0  0
 22 23  1  0  0  0  0
M  END
>  <COMPND>
    UNNAMED

>  <AUTHOR>
    GENERATED BY OPEN BABEL 2.4.90

>  <MASTER>
        0    0    0    0    0    0    0    0   25    0   25    0

