__1zjo_A_rec_2rj4_ad7_lig_min.pdb
 OpenBabel10181904213D

 27 28  0  0  1  0  0  0  0  0999 V2000
   17.9070  -10.8620    6.1110 C   0  0  2  0  0  0  0  0  0  0  0  0
   19.3000  -11.0950    5.8400 O   0  0  0  0  0  0  0  0  0  0  0  0
   19.8430  -12.2010    6.5890 C   0  0  1  0  0  0  0  0  0  0  0  0
   19.0860  -13.4890    6.2440 C   0  0  2  0  0  0  0  0  0  0  0  0
   19.1450  -13.7390    4.8350 O   0  0  0  0  0  0  0  0  0  0  0  0
   17.6160  -13.3160    6.5690 C   0  0  2  0  0  0  0  0  0  0  0  0
   16.9140  -14.5370    6.1450 N   0  0  0  0  0  0  0  0  0  0  0  0
   17.0490  -12.0960    5.8150 C   0  0  1  0  0  0  0  0  0  0  0  0
   21.3230  -12.3250    6.2450 C   0  0  0  0  0  0  0  0  0  0  0  0
   22.0520  -11.2970    6.9200 O   0  0  0  0  0  0  0  0  0  0  0  0
   17.4840   -9.7620    5.2920 O   0  0  0  0  0  0  0  0  0  0  0  0
   18.0620   -8.5310    5.8040 C   0  0  0  0  0  0  0  0  0  0  0  0
   17.0610   -7.3900    6.0330 C   0  0  0  0  0  0  0  0  0  0  0  0
   15.6310   -7.8850    6.3000 C   0  0  0  0  0  0  0  0  0  0  0  0
   15.4710   -8.3890    7.7390 C   0  0  0  0  0  0  0  0  0  0  0  0
   14.3350   -6.2660    8.4960 C   0  0  0  0  0  0  0  0  0  0  0  0
   14.2270   -7.7880    8.4000 C   0  0  0  0  0  0  0  0  0  0  0  0
   15.7020  -11.8040    6.2270 O   0  0  0  0  0  0  0  0  0  0  0  0
   14.7320  -12.2760    5.2550 C   0  0  1  0  0  0  0  0  0  0  0  0
   13.3330  -12.0080    5.8640 C   0  0  0  0  0  0  0  0  0  0  0  0
   14.9070  -11.7010    3.9020 O   0  0  0  0  0  0  0  0  0  0  0  0
   14.5690  -10.2850    3.7550 C   0  0  1  0  0  0  0  0  0  0  0  0
   14.7670   -9.8500    2.3000 C   0  0  0  0  0  0  0  0  0  0  0  0
   13.1430  -10.0410    4.2730 C   0  0  1  0  0  0  0  0  0  0  0  0
   12.1870  -10.7350    3.4550 O   0  0  0  0  0  0  0  0  0  0  0  0
   13.0230  -10.5080    5.7360 C   0  0  1  0  0  0  0  0  0  0  0  0
   11.7110  -10.2310    6.2310 O   0  0  0  0  0  0  0  0  0  0  0  0
  1 11  1  6  0  0  0
  1  2  1  0  0  0  0
  1  8  1  0  0  0  0
  2  3  1  0  0  0  0
  3  9  1  6  0  0  0
  3  4  1  0  0  0  0
  4  5  1  6  0  0  0
  4  6  1  0  0  0  0
  6  8  1  0  0  0  0
  6  7  1  6  0  0  0
  8 18  1  1  0  0  0
  9 10  1  0  0  0  0
 11 12  1  0  0  0  0
 12 13  1  0  0  0  0
 13 14  1  0  0  0  0
 14 15  1  0  0  0  0
 15 17  1  0  0  0  0
 16 17  1  0  0  0  0
 19 18  1  1  0  0  0
 19 21  1  0  0  0  0
 19 20  1  0  0  0  0
 20 26  1  0  0  0  0
 21 22  1  0  0  0  0
 22 23  1  6  0  0  0
 22 24  1  0  0  0  0
 24 25  1  6  0  0  0
 24 26  1  0  0  0  0
 26 27  1  6  0  0  0
M  END
>  <COMPND>
    UNNAMED

>  <AUTHOR>
    GENERATED BY OPEN BABEL 2.4.90

>  <MASTER>
        0    0    0    0    0    0    0    0   27    0   27    0

