__1zjo_A_rec_1zjo_dr4_lig_min.pdb
 OpenBabel10181902193D

 24 24  0  0  1  0  0  0  0  0999 V2000
   18.1110  -10.7320    6.2530 C   0  0  2  0  0  0  0  0  0  0  0  0
   19.4270  -11.1040    5.8020 O   0  0  0  0  0  0  0  0  0  0  0  0
   19.9260  -12.2430    6.5230 C   0  0  1  0  0  0  0  0  0  0  0  0
   19.0460  -13.4620    6.2360 C   0  0  2  0  0  0  0  0  0  0  0  0
   19.0820  -13.7700    4.8400 O   0  0  0  0  0  0  0  0  0  0  0  0
   17.6060  -13.1620    6.6580 C   0  0  2  0  0  0  0  0  0  0  0  0
   16.7550  -14.2420    6.2640 O   0  0  0  0  0  0  0  0  0  0  0  0
   17.1190  -11.8690    5.9980 C   0  0  1  0  0  0  0  0  0  0  0  0
   15.8310  -11.5190    6.5120 O   0  0  0  0  0  0  0  0  0  0  0  0
   21.3810  -12.5230    6.1370 C   0  0  0  0  0  0  0  0  0  0  0  0
   22.2270  -11.5270    6.7200 O   0  0  0  0  0  0  0  0  0  0  0  0
   17.6470   -9.5620    5.5620 O   0  0  0  0  0  0  0  0  0  0  0  0
   17.9020   -8.3730    6.3240 C   0  0  0  0  0  0  0  0  0  0  0  0
   19.2400   -7.7810    5.8760 C   0  0  0  0  0  0  0  0  0  0  0  0
   19.0780   -6.9070    4.6300 C   0  0  0  0  0  0  0  0  0  0  0  0
   17.9400   -5.8960    4.7860 C   0  0  0  0  0  0  0  0  0  0  0  0
   17.0680   -5.8020    3.5310 C   0  0  0  0  0  0  0  0  0  0  0  0
   15.8490   -6.7300    3.5670 C   0  0  0  0  0  0  0  0  0  0  0  0
   15.9790   -7.9310    2.6300 C   0  0  0  0  0  0  0  0  0  0  0  0
   14.5970   -8.4390    2.2150 C   0  0  0  0  0  0  0  0  0  0  0  0
   14.5300   -9.9680    2.2210 C   0  0  0  0  0  0  0  0  0  0  0  0
   13.7030  -10.5520    1.5200 O   0  0  0  0  0  0  0  0  0  0  0  0
   15.5220  -12.0240    2.5800 C   0  0  0  0  0  0  0  0  0  0  0  0
   15.3880  -10.6670    3.0110 O   0  0  0  0  0  0  0  0  0  0  0  0
  1 12  1  6  0  0  0
  1  2  1  0  0  0  0
  1  8  1  0  0  0  0
  2  3  1  0  0  0  0
  3 10  1  6  0  0  0
  3  4  1  0  0  0  0
  4  5  1  6  0  0  0
  4  6  1  0  0  0  0
  6  8  1  0  0  0  0
  6  7  1  6  0  0  0
  8  9  1  1  0  0  0
 10 11  1  0  0  0  0
 12 13  1  0  0  0  0
 13 14  1  0  0  0  0
 14 15  1  0  0  0  0
 15 16  1  0  0  0  0
 16 17  1  0  0  0  0
 17 18  1  0  0  0  0
 18 19  1  0  0  0  0
 19 20  1  0  0  0  0
 20 21  1  0  0  0  0
 21 22  2  0  0  0  0
 21 24  1  0  0  0  0
 23 24  1  0  0  0  0
M  END
>  <COMPND>
    UNNAMED

>  <AUTHOR>
    GENERATED BY OPEN BABEL 2.4.90

>  <MASTER>
        0    0    0    0    0    0    0    0   24    0   24    0

