__1zjp_A_rec_1zi3_nlc_lig_min.pdb
 OpenBabel10171923093D

 26 27  0  0  1  0  0  0  0  0999 V2000
   18.0660   -5.9260    6.5590 C   0  0  2  0  0  0  0  0  0  0  0  0
   17.7760   -5.5740    5.2030 O   0  0  0  0  0  0  0  0  0  0  0  0
   19.3350   -6.7800    6.6130 C   0  0  1  0  0  0  0  0  0  0  0  0
   19.0970   -8.1160    5.9040 C   0  0  1  0  0  0  0  0  0  0  0  0
   20.2540   -8.9410    6.0630 O   0  0  0  0  0  0  0  0  0  0  0  0
   17.8750   -8.8290    6.4870 C   0  0  1  0  0  0  0  0  0  0  0  0
   16.6880   -7.8770    6.4130 C   0  0  2  0  0  0  0  0  0  0  0  0
   16.9650   -6.6580    7.1250 O   0  0  0  0  0  0  0  0  0  0  0  0
   20.4310   -6.0590    5.9490 N   0  0  0  0  0  0  0  0  0  0  0  0
   21.6950   -6.1490    6.3530 C   0  0  0  0  0  0  0  0  0  0  0  0
   22.6920   -5.3180    5.5410 C   0  0  0  0  0  0  0  0  0  0  0  0
   22.0730   -6.8310    7.3050 O   0  0  0  0  0  0  0  0  0  0  0  0
   15.4500   -8.5460    7.0120 C   0  0  0  0  0  0  0  0  0  0  0  0
   15.8310   -9.3670    8.1200 O   0  0  0  0  0  0  0  0  0  0  0  0
   17.5650  -10.0220    5.7500 O   0  0  0  0  0  0  0  0  0  0  0  0
   17.1100  -12.3570    6.1240 C   0  0  2  0  0  0  0  0  0  0  0  0
   15.8130  -12.0720    6.6570 O   0  0  0  0  0  0  0  0  0  0  0  0
   17.6540  -13.6520    6.7340 C   0  0  1  0  0  0  0  0  0  0  0  0
   16.8260  -14.7480    6.3400 O   0  0  0  0  0  0  0  0  0  0  0  0
   19.0850  -13.8940    6.2500 C   0  0  2  0  0  0  0  0  0  0  0  0
   19.9420  -12.6640    6.5610 C   0  0  2  0  0  0  0  0  0  0  0  0
   18.0640  -11.1940    6.4120 C   0  0  1  0  0  0  0  0  0  0  0  0
   19.3760  -11.5110    5.9140 O   0  0  0  0  0  0  0  0  0  0  0  0
   19.0680  -14.1130    4.8360 O   0  0  0  0  0  0  0  0  0  0  0  0
   21.3740  -12.8840    6.0690 C   0  0  0  0  0  0  0  0  0  0  0  0
   22.2140  -11.8400    6.5670 O   0  0  0  0  0  0  0  0  0  0  0  0
  1  2  1  6  0  0  0
  1  3  1  0  0  0  0
  1  8  1  0  0  0  0
  3  9  1  6  0  0  0
  3  4  1  0  0  0  0
  4  5  1  1  0  0  0
  4  6  1  0  0  0  0
  6 15  1  6  0  0  0
  6  7  1  0  0  0  0
  7  8  1  0  0  0  0
  7 13  1  1  0  0  0
  9 10  1  0  0  0  0
 10 11  1  0  0  0  0
 10 12  2  0  0  0  0
 13 14  1  0  0  0  0
 16 22  1  0  0  0  0
 16 17  1  1  0  0  0
 16 18  1  0  0  0  0
 18 20  1  0  0  0  0
 18 19  1  6  0  0  0
 20 24  1  6  0  0  0
 20 21  1  0  0  0  0
 21 23  1  0  0  0  0
 21 25  1  6  0  0  0
 22 15  1  6  0  0  0
 22 23  1  0  0  0  0
 25 26  1  0  0  0  0
M  END
>  <COMPND>
    UNNAMED

>  <AUTHOR>
    GENERATED BY OPEN BABEL 2.4.90

>  <MASTER>
        0    0    0    0    0    0    0    0   26    0   26    0

