__1zjp_A_rec_5c1g_da8_lig_min.pdb
 OpenBabel10181909323D

 27 28  0  0  1  0  0  0  0  0999 V2000
   18.2310  -11.0120    6.3520 C   0  0  2  0  0  0  0  0  0  0  0  0
   19.5630  -11.3160    5.8970 O   0  0  0  0  0  0  0  0  0  0  0  0
   20.0040  -12.5090    6.5620 C   0  0  1  0  0  0  0  0  0  0  0  0
   19.1010  -13.7130    6.2500 C   0  0  2  0  0  0  0  0  0  0  0  0
   19.1090  -14.0010    4.8620 O   0  0  0  0  0  0  0  0  0  0  0  0
   17.6970  -13.3320    6.7280 C   0  0  0  0  0  0  0  0  0  0  0  0
   17.2310  -12.0650    5.9580 C   0  0  1  0  0  0  0  0  0  0  0  0
   21.4600  -12.6990    6.1290 C   0  0  0  0  0  0  0  0  0  0  0  0
   22.2560  -11.6560    6.6980 O   0  0  0  0  0  0  0  0  0  0  0  0
   17.6990   -9.8440    5.7620 O   0  0  0  0  0  0  0  0  0  0  0  0
   18.3380   -8.7090    6.3310 C   0  0  0  0  0  0  0  0  0  0  0  0
   17.3290   -7.5850    6.1410 C   0  0  0  0  0  0  0  0  0  0  0  0
   16.2620   -7.8330    7.2210 C   0  0  0  0  0  0  0  0  0  0  0  0
   14.9880   -7.0060    7.0900 C   0  0  0  0  0  0  0  0  0  0  0  0
   13.3320   -6.1540    8.8100 C   0  0  0  0  0  0  0  0  0  0  0  0
   14.0410   -7.3810    8.2300 C   0  0  0  0  0  0  0  0  0  0  0  0
   15.9230  -11.7590    6.4530 O   0  0  0  0  0  0  0  0  0  0  0  0
   14.8690  -12.3030    5.6580 C   0  0  2  0  0  0  0  0  0  0  0  0
   14.6450  -11.3520    4.5850 O   0  0  0  0  0  0  0  0  0  0  0  0
   14.2650  -10.0410    5.0710 C   0  0  1  0  0  0  0  0  0  0  0  0
   14.0780   -9.1000    3.8810 C   0  0  0  0  0  0  0  0  0  0  0  0
   12.9670  -10.1350    5.8770 C   0  0  1  0  0  0  0  0  0  0  0  0
   11.8820  -10.5830    5.0650 O   0  0  0  0  0  0  0  0  0  0  0  0
   13.2080  -11.0750    7.0450 C   0  0  1  0  0  0  0  0  0  0  0  0
   12.0080  -11.2050    7.8080 O   0  0  0  0  0  0  0  0  0  0  0  0
   13.6010  -12.4410    6.5000 C   0  0  2  0  0  0  0  0  0  0  0  0
   13.8260  -13.3060    7.6060 O   0  0  0  0  0  0  0  0  0  0  0  0
  1  7  1  0  0  0  0
  1 10  1  6  0  0  0
  1  2  1  0  0  0  0
  2  3  1  0  0  0  0
  3  4  1  0  0  0  0
  3  8  1  6  0  0  0
  4  5  1  6  0  0  0
  4  6  1  0  0  0  0
  6  7  1  0  0  0  0
  7 17  1  1  0  0  0
  8  9  1  0  0  0  0
 10 11  1  0  0  0  0
 11 12  1  0  0  0  0
 12 13  1  0  0  0  0
 13 14  1  0  0  0  0
 14 16  1  0  0  0  0
 15 16  1  0  0  0  0
 18 17  1  1  0  0  0
 18 19  1  0  0  0  0
 18 26  1  0  0  0  0
 19 20  1  0  0  0  0
 20 21  1  6  0  0  0
 20 22  1  0  0  0  0
 22 23  1  6  0  0  0
 22 24  1  0  0  0  0
 24 26  1  0  0  0  0
 24 25  1  6  0  0  0
 26 27  1  1  0  0  0
M  END
>  <COMPND>
    UNNAMED

>  <AUTHOR>
    GENERATED BY OPEN BABEL 2.4.90

>  <MASTER>
        0    0    0    0    0    0    0    0   27    0   27    0

