__1zjp_A_rec_2riy_bhe_lig_min.pdb
 OpenBabel10181905493D

 28 29  0  0  1  0  0  0  0  0999 V2000
   18.1270  -11.1070    6.3090 C   0  0  2  0  0  0  0  0  0  0  0  0
   19.4620  -11.4010    5.8620 O   0  0  0  0  0  0  0  0  0  0  0  0
   20.0210  -12.5060    6.5530 C   0  0  1  0  0  0  0  0  0  0  0  0
   19.2260  -13.7930    6.2440 C   0  0  2  0  0  0  0  0  0  0  0  0
   19.2090  -14.0980    4.8120 O   0  0  0  0  0  0  0  0  0  0  0  0
   17.7770  -13.5690    6.7230 C   0  0  2  0  0  0  0  0  0  0  0  0
   16.9700  -14.6980    6.3740 O   0  0  0  0  0  0  0  0  0  0  0  0
   17.1930  -12.2950    6.0910 C   0  0  1  0  0  0  0  0  0  0  0  0
   22.2180  -11.5820    6.7640 O   0  0  0  0  0  0  0  0  0  0  0  0
   21.4810  -12.6440    6.1380 C   0  0  0  0  0  0  0  0  0  0  0  0
   17.6270   -9.9930    5.5950 O   0  0  0  0  0  0  0  0  0  0  0  0
   18.2340   -8.7800    6.1030 C   0  0  0  0  0  0  0  0  0  0  0  0
   17.1860   -7.6600    6.1440 C   0  0  0  0  0  0  0  0  0  0  0  0
   16.2660   -7.8000    7.3710 C   0  0  0  0  0  0  0  0  0  0  0  0
   14.9970   -6.9490    7.1930 C   0  0  0  0  0  0  0  0  0  0  0  0
   13.3750   -5.9770    8.8440 C   0  0  0  0  0  0  0  0  0  0  0  0
   13.9790   -7.2770    8.2910 C   0  0  0  0  0  0  0  0  0  0  0  0
   15.9140  -11.9630    6.6720 O   0  0  0  0  0  0  0  0  0  0  0  0
   14.8120  -12.3220    5.8050 C   0  0  1  0  0  0  0  0  0  0  0  0
   13.5320  -12.4870    6.6430 C   0  0  1  0  0  0  0  0  0  0  0  0
   13.7850  -13.3930    7.7520 O   0  0  0  0  0  0  0  0  0  0  0  0
   13.1460  -11.1040    7.2000 C   0  0  2  0  0  0  0  0  0  0  0  0
   11.9340  -11.1880    7.9820 O   0  0  0  0  0  0  0  0  0  0  0  0
   12.9400  -10.0950    6.0500 C   0  0  2  0  0  0  0  0  0  0  0  0
   11.8500  -10.5050    5.2420 O   0  0  0  0  0  0  0  0  0  0  0  0
   14.2170  -10.0010    5.2060 C   0  0  1  0  0  0  0  0  0  0  0  0
   14.6010  -11.3460    4.7630 O   0  0  0  0  0  0  0  0  0  0  0  0
   14.0220   -9.1110    3.9880 C   0  0  0  0  0  0  0  0  0  0  0  0
  1 11  1  6  0  0  0
  1  2  1  0  0  0  0
  1  8  1  0  0  0  0
  2  3  1  0  0  0  0
  3 10  1  6  0  0  0
  3  4  1  0  0  0  0
  4  5  1  6  0  0  0
  4  6  1  0  0  0  0
  6  8  1  0  0  0  0
  6  7  1  6  0  0  0
  8 18  1  1  0  0  0
  9 10  1  0  0  0  0
 11 12  1  0  0  0  0
 12 13  1  0  0  0  0
 13 14  1  0  0  0  0
 14 15  1  0  0  0  0
 15 17  1  0  0  0  0
 16 17  1  0  0  0  0
 19 18  1  1  0  0  0
 19 27  1  0  0  0  0
 19 20  1  0  0  0  0
 20 22  1  0  0  0  0
 20 21  1  1  0  0  0
 22 24  1  0  0  0  0
 22 23  1  6  0  0  0
 24 25  1  6  0  0  0
 24 26  1  0  0  0  0
 26 28  1  6  0  0  0
 26 27  1  0  0  0  0
M  END
>  <COMPND>
    UNNAMED

>  <AUTHOR>
    GENERATED BY OPEN BABEL 2.4.90

>  <MASTER>
        0    0    0    0    0    0    0    0   28    0   28    0

