__1zjp_A_rec_1zj3_dr2_lig_min.pdb
 OpenBabel10171923483D

 36 38  0  0  1  0  0  0  0  0999 V2000
   17.9540  -11.1230    6.4270 C   0  0  2  0  0  0  0  0  0  0  0  0
   19.3020  -11.4250    6.0210 O   0  0  0  0  0  0  0  0  0  0  0  0
   19.7790  -12.6390    6.6230 C   0  0  1  0  0  0  0  0  0  0  0  0
   18.9110  -13.8150    6.1650 C   0  0  2  0  0  0  0  0  0  0  0  0
   19.0530  -14.0000    4.7540 O   0  0  0  0  0  0  0  0  0  0  0  0
   17.4440  -13.5260    6.4940 C   0  0  2  0  0  0  0  0  0  0  0  0
   16.6230  -14.5780    5.9790 O   0  0  0  0  0  0  0  0  0  0  0  0
   17.0150  -12.1890    5.8810 C   0  0  1  0  0  0  0  0  0  0  0  0
   21.2360  -12.8780    6.2220 C   0  0  0  0  0  0  0  0  0  0  0  0
   22.0200  -11.7310    6.5550 O   0  0  0  0  0  0  0  0  0  0  0  0
   17.5520   -9.8550    5.8860 O   0  0  0  0  0  0  0  0  0  0  0  0
   20.3760   -8.9250    6.0910 O   0  0  0  0  0  0  0  0  0  0  0  0
   19.2110   -8.0860    6.1770 C   0  0  2  0  0  0  0  0  0  0  0  0
   19.5260   -6.7170    6.7880 C   0  0  2  0  0  0  0  0  0  0  0  0
   18.2510   -5.8960    6.9970 C   0  0  2  0  0  0  0  0  0  0  0  0
   18.6210   -4.7780    7.8070 O   0  0  0  0  0  0  0  0  0  0  0  0
   17.2680   -6.6690    7.7050 O   0  0  0  0  0  0  0  0  0  0  0  0
   16.8320   -7.7970    6.9290 C   0  0  1  0  0  0  0  0  0  0  0  0
   17.9780   -8.7810    6.7410 C   0  0  1  0  0  0  0  0  0  0  0  0
   20.4070   -5.9800    5.8700 N   0  0  0  0  0  0  0  0  0  0  0  0
   21.7320   -5.9520    5.9930 C   0  0  0  0  0  0  0  0  0  0  0  0
   22.4650   -5.2470    4.8490 C   0  0  0  0  0  0  0  0  0  0  0  0
   22.3580   -6.5320    6.8790 O   0  0  0  0  0  0  0  0  0  0  0  0
   15.6630   -8.4850    7.6360 C   0  0  0  0  0  0  0  0  0  0  0  0
   16.1590   -9.3330    8.6750 O   0  0  0  0  0  0  0  0  0  0  0  0
   15.6720  -11.8620    6.2700 O   0  0  0  0  0  0  0  0  0  0  0  0
   14.7290  -12.2090    5.2440 C   0  0  2  0  0  0  0  0  0  0  0  0
   14.6530  -11.1640    4.2560 O   0  0  0  0  0  0  0  0  0  0  0  0
   14.2670   -9.8960    4.8140 C   0  0  1  0  0  0  0  0  0  0  0  0
   14.3000   -8.8220    3.7250 C   0  0  0  0  0  0  0  0  0  0  0  0
   12.8650   -9.9950    5.4210 C   0  0  1  0  0  0  0  0  0  0  0  0
   11.9060  -10.2810    4.3970 O   0  0  0  0  0  0  0  0  0  0  0  0
   12.8350  -11.1030    6.4760 C   0  0  1  0  0  0  0  0  0  0  0  0
   11.4950  -11.2850    6.9400 O   0  0  0  0  0  0  0  0  0  0  0  0
   13.3530  -12.4160    5.8830 C   0  0  2  0  0  0  0  0  0  0  0  0
   13.4290  -13.4190    6.8980 O   0  0  0  0  0  0  0  0  0  0  0  0
  1  8  1  0  0  0  0
  1 11  1  6  0  0  0
  1  2  1  0  0  0  0
  2  3  1  0  0  0  0
  3  4  1  0  0  0  0
  3  9  1  6  0  0  0
  4  5  1  6  0  0  0
  4  6  1  0  0  0  0
  6  8  1  0  0  0  0
  6  7  1  6  0  0  0
  8 26  1  1  0  0  0
  9 10  1  0  0  0  0
 13 12  1  1  0  0  0
 13 19  1  0  0  0  0
 13 14  1  0  0  0  0
 14 20  1  6  0  0  0
 14 15  1  0  0  0  0
 15 17  1  0  0  0  0
 15 16  1  1  0  0  0
 17 18  1  0  0  0  0
 18 19  1  0  0  0  0
 18 24  1  1  0  0  0
 19 11  1  6  0  0  0
 20 21  1  0  0  0  0
 21 22  1  0  0  0  0
 21 23  2  0  0  0  0
 24 25  1  0  0  0  0
 27 26  1  1  0  0  0
 27 28  1  0  0  0  0
 27 35  1  0  0  0  0
 28 29  1  0  0  0  0
 29 30  1  6  0  0  0
 29 31  1  0  0  0  0
 31 32  1  6  0  0  0
 31 33  1  0  0  0  0
 33 35  1  0  0  0  0
 33 34  1  6  0  0  0
 35 36  1  1  0  0  0
M  END
>  <COMPND>
    UNNAMED

>  <AUTHOR>
    GENERATED BY OPEN BABEL 2.4.90

>  <MASTER>
        0    0    0    0    0    0    0    0   36    0   36    0

