__2a8u_A_rec_2rj4_ad7_lig_min.pdb
 OpenBabel10181901523D

 27 28  0  0  1  0  0  0  0  0999 V2000
   18.1060  -10.8510    6.2190 C   0  0  2  0  0  0  0  0  0  0  0  0
   19.4710  -11.1740    5.9010 O   0  0  0  0  0  0  0  0  0  0  0  0
   19.9700  -12.3090    6.6380 C   0  0  1  0  0  0  0  0  0  0  0  0
   19.1210  -13.5470    6.3290 C   0  0  2  0  0  0  0  0  0  0  0  0
   19.1140  -13.8070    4.9200 O   0  0  0  0  0  0  0  0  0  0  0  0
   17.6770  -13.2790    6.7040 C   0  0  2  0  0  0  0  0  0  0  0  0
   16.8850  -14.4550    6.3150 N   0  0  0  0  0  0  0  0  0  0  0  0
   17.1620  -12.0300    5.9620 C   0  0  1  0  0  0  0  0  0  0  0  0
   21.4250  -12.5280    6.2430 C   0  0  0  0  0  0  0  0  0  0  0  0
   22.2310  -11.4950    6.8160 O   0  0  0  0  0  0  0  0  0  0  0  0
   17.7250   -9.7310    5.4070 O   0  0  0  0  0  0  0  0  0  0  0  0
   17.9930   -8.5000    6.1310 C   0  0  0  0  0  0  0  0  0  0  0  0
   16.7560   -7.6430    6.4360 C   0  0  0  0  0  0  0  0  0  0  0  0
   15.8590   -8.2440    7.5280 C   0  0  0  0  0  0  0  0  0  0  0  0
   15.1820   -7.1500    8.3630 C   0  0  0  0  0  0  0  0  0  0  0  0
   12.9220   -6.3420    9.1440 C   0  0  0  0  0  0  0  0  0  0  0  0
   13.7620   -7.5610    8.7650 C   0  0  0  0  0  0  0  0  0  0  0  0
   15.8510  -11.6500    6.4190 O   0  0  0  0  0  0  0  0  0  0  0  0
   14.8310  -11.9660    5.4370 C   0  0  1  0  0  0  0  0  0  0  0  0
   13.4770  -11.9540    6.1890 C   0  0  0  0  0  0  0  0  0  0  0  0
   14.8520  -11.0890    4.2450 O   0  0  0  0  0  0  0  0  0  0  0  0
   14.4170   -9.7070    4.4530 C   0  0  1  0  0  0  0  0  0  0  0  0
   14.4600   -8.9410    3.1280 C   0  0  0  0  0  0  0  0  0  0  0  0
   13.0300   -9.7000    5.1140 C   0  0  1  0  0  0  0  0  0  0  0  0
   12.0500  -10.2650    4.2270 O   0  0  0  0  0  0  0  0  0  0  0  0
   13.0660  -10.4930    6.4330 C   0  0  1  0  0  0  0  0  0  0  0  0
   11.7880  -10.4400    7.0720 O   0  0  0  0  0  0  0  0  0  0  0  0
  1 11  1  6  0  0  0
  1  2  1  0  0  0  0
  1  8  1  0  0  0  0
  2  3  1  0  0  0  0
  3  9  1  6  0  0  0
  3  4  1  0  0  0  0
  4  5  1  6  0  0  0
  4  6  1  0  0  0  0
  6  8  1  0  0  0  0
  6  7  1  6  0  0  0
  8 18  1  1  0  0  0
  9 10  1  0  0  0  0
 11 12  1  0  0  0  0
 12 13  1  0  0  0  0
 13 14  1  0  0  0  0
 14 15  1  0  0  0  0
 15 17  1  0  0  0  0
 16 17  1  0  0  0  0
 19 18  1  1  0  0  0
 19 21  1  0  0  0  0
 19 20  1  0  0  0  0
 20 26  1  0  0  0  0
 21 22  1  0  0  0  0
 22 23  1  6  0  0  0
 22 24  1  0  0  0  0
 24 25  1  6  0  0  0
 24 26  1  0  0  0  0
 26 27  1  6  0  0  0
M  END
>  <COMPND>
    UNNAMED

>  <AUTHOR>
    GENERATED BY OPEN BABEL 2.4.90

>  <MASTER>
        0    0    0    0    0    0    0    0   27    0   27    0

