__2a8u_A_rec_3v0q_udp_lig_min.pdb
 OpenBabel10181912013D

 25 26  0  0  1  0  0  0  0  0999 V2000
   10.3500  -23.3410    6.1030 C   0  0  1  0  0  0  0  0  0  0  0  0
    9.4680  -22.4170    5.2830 C   0  0  2  0  0  0  0  0  0  0  0  0
    9.4480  -22.8960    3.9540 O   0  0  0  0  0  0  0  0  0  0  0  0
   10.2430  -21.1250    5.3300 C   0  0  1  0  0  0  0  0  0  0  0  0
   11.6720  -21.6300    5.2740 C   0  0  2  0  0  0  0  0  0  0  0  0
   11.6680  -22.8340    6.0220 O   0  0  0  0  0  0  0  0  0  0  0  0
    9.9070  -20.3040    4.2330 O   0  0  0  0  0  0  0  0  0  0  0  0
    9.8830  -23.4370    7.5100 N   0  0  0  0  0  0  0  0  0  0  0  0
    8.8420  -24.3080    7.7720 C   0  0  0  0  0  0  0  0  0  0  0  0
    8.3590  -24.4640    9.0610 N   0  0  0  0  0  0  0  0  0  0  0  0
    8.9250  -23.7480   10.1040 C   0  0  0  0  0  0  0  0  0  0  0  0
    9.9820  -22.8680    9.8400 C   0  0  0  0  0  0  0  0  0  0  0  0
   10.3830  -22.6450    8.5120 C   0  0  0  0  0  0  0  0  0  0  0  0
    8.3310  -24.9370    6.8480 O   0  0  0  0  0  0  0  0  0  0  0  0
    8.4750  -23.9110   11.2460 O   0  0  0  0  0  0  0  0  0  0  0  0
   12.6780  -20.6390    5.8460 C   0  0  0  0  0  0  0  0  0  0  0  0
   11.9570  -19.6720    6.5720 O   0  0  0  0  0  0  0  0  0  0  0  0
   12.3420  -18.1430    6.3450 P   0  0  2  0  0  0  0  0  0  0  0  0
   12.3020  -17.3890    7.6140 O   0  0  0  0  0  0  0  0  0  0  0  0
   11.4450  -17.5960    5.3000 O   0  0  0  0  0  0  0  0  0  0  0  0
   13.8250  -18.2450    5.7790 O   0  0  0  0  0  0  0  0  0  0  0  0
   14.7550  -16.9720    5.4310 P   0  0  0  0  0  0  0  0  0  0  0  0
   14.0600  -15.7050    5.7630 O   0  0  0  0  0  0  0  0  0  0  0  0
   15.1810  -16.9310    4.0080 O   0  0  0  0  0  0  0  0  0  0  0  0
   15.9300  -17.1230    6.3180 O   0  0  0  0  0  0  0  0  0  0  0  0
  1  2  1  0  0  0  0
  1  6  1  0  0  0  0
  1  8  1  1  0  0  0
  2  3  1  6  0  0  0
  2  4  1  0  0  0  0
  4  7  1  6  0  0  0
  4  5  1  0  0  0  0
  5 16  1  1  0  0  0
  5  6  1  0  0  0  0
  8  9  1  0  0  0  0
  8 13  1  0  0  0  0
  9 14  2  0  0  0  0
  9 10  1  0  0  0  0
 10 11  1  0  0  0  0
 11 12  1  0  0  0  0
 11 15  2  0  0  0  0
 12 13  2  0  0  0  0
 16 17  1  0  0  0  0
 17 18  1  0  0  0  0
 18 20  2  6  0  0  0
 18 21  1  0  0  0  0
 18 19  1  0  0  0  0
 21 22  1  0  0  0  0
 22 24  2  0  0  0  0
 22 25  1  0  0  0  0
 22 23  1  0  0  0  0
M  END
>  <COMPND>
    UNNAMED

>  <AUTHOR>
    GENERATED BY OPEN BABEL 2.4.90

>  <MASTER>
        0    0    0    0    0    0    0    0   25    0   25    0

