__2a8u_A_rec_5c1g_da8_lig_min.pdb
 OpenBabel10171922533D

 27 28  0  0  1  0  0  0  0  0999 V2000
   18.2490  -10.6950    6.1940 C   0  0  2  0  0  0  0  0  0  0  0  0
   19.5890  -11.0830    5.8380 O   0  0  0  0  0  0  0  0  0  0  0  0
   19.9370  -12.2500    6.5970 C   0  0  1  0  0  0  0  0  0  0  0  0
   18.9990  -13.4320    6.3040 C   0  0  2  0  0  0  0  0  0  0  0  0
   19.0730  -13.8040    4.9380 O   0  0  0  0  0  0  0  0  0  0  0  0
   17.5890  -12.9630    6.6730 C   0  0  0  0  0  0  0  0  0  0  0  0
   17.2250  -11.7270    5.8040 C   0  0  1  0  0  0  0  0  0  0  0  0
   21.4050  -12.5270    6.2630 C   0  0  0  0  0  0  0  0  0  0  0  0
   22.2140  -11.4890    6.8210 O   0  0  0  0  0  0  0  0  0  0  0  0
   17.8050   -9.5440    5.5070 O   0  0  0  0  0  0  0  0  0  0  0  0
   18.1030   -8.3960    6.2900 C   0  0  0  0  0  0  0  0  0  0  0  0
   16.8540   -7.5350    6.1710 C   0  0  0  0  0  0  0  0  0  0  0  0
   15.9730   -7.9600    7.3580 C   0  0  0  0  0  0  0  0  0  0  0  0
   15.5450   -6.8370    8.2960 C   0  0  0  0  0  0  0  0  0  0  0  0
   13.3930   -5.8910    9.2460 C   0  0  0  0  0  0  0  0  0  0  0  0
   14.1520   -7.1570    8.8390 C   0  0  0  0  0  0  0  0  0  0  0  0
   15.9070  -11.3360    6.2020 O   0  0  0  0  0  0  0  0  0  0  0  0
   14.8730  -11.9400    5.4250 C   0  0  2  0  0  0  0  0  0  0  0  0
   14.7310  -11.1160    4.2390 O   0  0  0  0  0  0  0  0  0  0  0  0
   14.3750   -9.7460    4.5500 C   0  0  1  0  0  0  0  0  0  0  0  0
   14.2750   -8.9460    3.2510 C   0  0  0  0  0  0  0  0  0  0  0  0
   13.0380   -9.7070    5.2960 C   0  0  1  0  0  0  0  0  0  0  0  0
   11.9770  -10.2160    4.4880 O   0  0  0  0  0  0  0  0  0  0  0  0
   13.1930  -10.5100    6.5760 C   0  0  1  0  0  0  0  0  0  0  0  0
   11.9560  -10.5150    7.2880 O   0  0  0  0  0  0  0  0  0  0  0  0
   13.5640  -11.9410    6.2130 C   0  0  2  0  0  0  0  0  0  0  0  0
   13.7070  -12.6770    7.4220 O   0  0  0  0  0  0  0  0  0  0  0  0
  1  7  1  0  0  0  0
  1 10  1  6  0  0  0
  1  2  1  0  0  0  0
  2  3  1  0  0  0  0
  3  4  1  0  0  0  0
  3  8  1  6  0  0  0
  4  5  1  6  0  0  0
  4  6  1  0  0  0  0
  6  7  1  0  0  0  0
  7 17  1  1  0  0  0
  8  9  1  0  0  0  0
 10 11  1  0  0  0  0
 11 12  1  0  0  0  0
 12 13  1  0  0  0  0
 13 14  1  0  0  0  0
 14 16  1  0  0  0  0
 15 16  1  0  0  0  0
 18 17  1  1  0  0  0
 18 19  1  0  0  0  0
 18 26  1  0  0  0  0
 19 20  1  0  0  0  0
 20 21  1  6  0  0  0
 20 22  1  0  0  0  0
 22 23  1  6  0  0  0
 22 24  1  0  0  0  0
 24 26  1  0  0  0  0
 24 25  1  6  0  0  0
 26 27  1  1  0  0  0
M  END
>  <COMPND>
    UNNAMED

>  <AUTHOR>
    GENERATED BY OPEN BABEL 2.4.90

>  <MASTER>
        0    0    0    0    0    0    0    0   27    0   27    0

