__2a8u_A_rec_5c4e_udp_lig_docked.pdb
 OpenBabel10181917433D

 25 26  0  0  1  0  0  0  0  0999 V2000
   10.5530  -23.3590    6.1970 C   0  0  1  0  0  0  0  0  0  0  0  0
    9.5850  -22.6400    5.2720 C   0  0  2  0  0  0  0  0  0  0  0  0
    9.7030  -23.1000    3.9290 O   0  0  0  0  0  0  0  0  0  0  0  0
   10.1430  -21.2420    5.3360 C   0  0  1  0  0  0  0  0  0  0  0  0
   11.6440  -21.4970    5.3310 C   0  0  2  0  0  0  0  0  0  0  0  0
   11.8060  -22.6770    6.1330 O   0  0  0  0  0  0  0  0  0  0  0  0
    9.6760  -20.4530    4.2210 O   0  0  0  0  0  0  0  0  0  0  0  0
   10.0790  -23.3490    7.5760 N   0  0  0  0  0  0  0  0  0  0  0  0
    9.0720  -24.2770    7.8850 C   0  0  0  0  0  0  0  0  0  0  0  0
    8.6000  -24.3660    9.1420 N   0  0  0  0  0  0  0  0  0  0  0  0
    9.0760  -23.6030   10.1450 C   0  0  0  0  0  0  0  0  0  0  0  0
   10.0880  -22.6790    9.8700 C   0  0  0  0  0  0  0  0  0  0  0  0
   10.5920  -22.5770    8.5670 C   0  0  0  0  0  0  0  0  0  0  0  0
    8.6270  -24.9990    6.9680 O   0  0  0  0  0  0  0  0  0  0  0  0
    8.5870  -23.7360   11.3100 O   0  0  0  0  0  0  0  0  0  0  0  0
   12.5500  -20.3870    5.8660 C   0  0  0  0  0  0  0  0  0  0  0  0
   11.8850  -19.1250    5.7640 O   0  0  0  0  0  0  0  0  0  0  0  0
   11.4980  -18.2490    7.0620 P   0  0  2  0  0  0  0  0  0  0  0  0
   11.9650  -19.0620    8.2570 O   0  0  0  0  0  0  0  0  0  0  0  0
   10.0500  -17.8050    6.9190 O   0  0  0  0  0  0  0  0  0  0  0  0
   12.4740  -16.9600    6.8810 O   0  0  0  0  0  0  0  0  0  0  0  0
   12.8550  -16.2650    5.4510 P   0  0  0  0  0  0  0  0  0  0  0  0
   14.0290  -17.0100    4.8540 O   0  0  0  0  0  0  0  0  0  0  0  0
   13.1840  -14.7890    5.6880 O   0  0  0  0  0  0  0  0  0  0  0  0
   11.5780  -16.4780    4.6570 O   0  0  0  0  0  0  0  0  0  0  0  0
  1  2  1  0  0  0  0
  1  6  1  0  0  0  0
  1  8  1  1  0  0  0
  2  3  1  6  0  0  0
  2  4  1  0  0  0  0
  4  7  1  6  0  0  0
  4  5  1  0  0  0  0
  5 16  1  1  0  0  0
  5  6  1  0  0  0  0
  8  9  1  0  0  0  0
  8 13  1  0  0  0  0
  9 14  2  0  0  0  0
  9 10  1  0  0  0  0
 10 11  1  0  0  0  0
 11 12  1  0  0  0  0
 11 15  2  0  0  0  0
 12 13  2  0  0  0  0
 16 17  1  0  0  0  0
 17 18  1  0  0  0  0
 18 20  2  1  0  0  0
 18 21  1  0  0  0  0
 18 19  1  0  0  0  0
 21 22  1  0  0  0  0
 22 24  2  0  0  0  0
 22 25  1  0  0  0  0
 22 23  1  0  0  0  0
M  END
>  <MODEL>
       6

>  <COMPND>
    UNNAMED

>  <AUTHOR>
    GENERATED BY OPEN BABEL 2.4.90

>  <MASTER>
        0    0    0    0    0    0    0    0   25    0   25    0

