__2a8u_A_rec_2riy_bhe_lig_min.pdb
 OpenBabel10181911393D

 28 29  0  0  1  0  0  0  0  0999 V2000
   18.0880  -10.7970    6.2110 C   0  0  2  0  0  0  0  0  0  0  0  0
   19.4410  -11.1440    5.8690 O   0  0  0  0  0  0  0  0  0  0  0  0
   19.9140  -12.2450    6.6280 C   0  0  1  0  0  0  0  0  0  0  0  0
   19.1030  -13.5160    6.2970 C   0  0  2  0  0  0  0  0  0  0  0  0
   19.1770  -13.8620    4.8760 O   0  0  0  0  0  0  0  0  0  0  0  0
   17.6310  -13.2350    6.6650 C   0  0  2  0  0  0  0  0  0  0  0  0
   16.8150  -14.3490    6.2900 O   0  0  0  0  0  0  0  0  0  0  0  0
   17.1340  -11.9630    5.9580 C   0  0  1  0  0  0  0  0  0  0  0  0
   22.1170  -11.3680    6.9520 O   0  0  0  0  0  0  0  0  0  0  0  0
   21.3950  -12.4370    6.3220 C   0  0  0  0  0  0  0  0  0  0  0  0
   17.6750   -9.6910    5.4330 O   0  0  0  0  0  0  0  0  0  0  0  0
   18.0290   -8.4620    6.1140 C   0  0  0  0  0  0  0  0  0  0  0  0
   16.7630   -7.6330    6.3690 C   0  0  0  0  0  0  0  0  0  0  0  0
   15.9730   -8.1780    7.5730 C   0  0  0  0  0  0  0  0  0  0  0  0
   15.2620   -7.0320    8.3140 C   0  0  0  0  0  0  0  0  0  0  0  0
   13.0260   -6.2560    9.1490 C   0  0  0  0  0  0  0  0  0  0  0  0
   13.8770   -7.4830    8.7870 C   0  0  0  0  0  0  0  0  0  0  0  0
   15.8280  -11.5760    6.4370 O   0  0  0  0  0  0  0  0  0  0  0  0
   14.7720  -11.9990    5.5420 C   0  0  1  0  0  0  0  0  0  0  0  0
   13.4380  -12.0480    6.3070 C   0  0  1  0  0  0  0  0  0  0  0  0
   13.5960  -12.8380    7.5180 O   0  0  0  0  0  0  0  0  0  0  0  0
   13.0590  -10.6050    6.6940 C   0  0  2  0  0  0  0  0  0  0  0  0
   11.7990  -10.5800    7.3990 O   0  0  0  0  0  0  0  0  0  0  0  0
   12.9540   -9.7180    5.4350 C   0  0  2  0  0  0  0  0  0  0  0  0
   11.9050  -10.1860    4.6040 O   0  0  0  0  0  0  0  0  0  0  0  0
   14.2840   -9.7410    4.6700 C   0  0  1  0  0  0  0  0  0  0  0  0
   14.6560  -11.1330    4.3940 O   0  0  0  0  0  0  0  0  0  0  0  0
   14.1900   -8.9790    3.3570 C   0  0  0  0  0  0  0  0  0  0  0  0
  1 11  1  6  0  0  0
  1  2  1  0  0  0  0
  1  8  1  0  0  0  0
  2  3  1  0  0  0  0
  3 10  1  6  0  0  0
  3  4  1  0  0  0  0
  4  5  1  6  0  0  0
  4  6  1  0  0  0  0
  6  8  1  0  0  0  0
  6  7  1  6  0  0  0
  8 18  1  1  0  0  0
  9 10  1  0  0  0  0
 11 12  1  0  0  0  0
 12 13  1  0  0  0  0
 13 14  1  0  0  0  0
 14 15  1  0  0  0  0
 15 17  1  0  0  0  0
 16 17  1  0  0  0  0
 19 18  1  1  0  0  0
 19 27  1  0  0  0  0
 19 20  1  0  0  0  0
 20 22  1  0  0  0  0
 20 21  1  1  0  0  0
 22 24  1  0  0  0  0
 22 23  1  6  0  0  0
 24 25  1  6  0  0  0
 24 26  1  0  0  0  0
 26 28  1  6  0  0  0
 26 27  1  0  0  0  0
M  END
>  <COMPND>
    UNNAMED

>  <AUTHOR>
    GENERATED BY OPEN BABEL 2.4.90

>  <MASTER>
        0    0    0    0    0    0    0    0   28    0   28    0

