__2o1h_A_rec_5c38_urm_lig_docked.pdb
 OpenBabel10181921453D

 36 38  0  0  1  0  0  0  0  0999 V2000
   11.9400  -17.9420    7.0430 P   0  0  1  0  0  0  0  0  0  0  0  0
   10.7600  -17.0830    6.8340 O   0  0  0  0  0  0  0  0  0  0  0  0
   12.6550  -17.8900    8.3420 O   0  0  0  0  0  0  0  0  0  0  0  0
   11.5800  -19.4230    6.7820 O   0  0  0  0  0  0  0  0  0  0  0  0
   12.4150  -20.2860    5.9870 C   0  0  0  0  0  0  0  0  0  0  0  0
   10.5710  -23.4150    6.0600 C   0  0  1  0  0  0  0  0  0  0  0  0
    9.6040  -22.6790    5.1410 C   0  0  1  0  0  0  0  0  0  0  0  0
   10.0760  -21.2590    5.3280 C   0  0  1  0  0  0  0  0  0  0  0  0
   11.5920  -21.4370    5.2970 C   0  0  2  0  0  0  0  0  0  0  0  0
   11.7800  -22.5980    6.1180 O   0  0  0  0  0  0  0  0  0  0  0  0
    9.6080  -20.4220    4.2620 O   0  0  0  0  0  0  0  0  0  0  0  0
    9.8100  -23.1370    3.7940 O   0  0  0  0  0  0  0  0  0  0  0  0
   10.0440  -23.5390    7.4310 N   0  0  0  0  0  0  0  0  0  0  0  0
    8.5350  -24.6590    8.8820 N   0  0  0  0  0  0  0  0  0  0  0  0
    9.9650  -22.9540    9.7640 C   0  0  0  0  0  0  0  0  0  0  0  0
   10.5050  -22.7630    8.4990 C   0  0  0  0  0  0  0  0  0  0  0  0
    9.0530  -24.4890    7.6160 C   0  0  0  0  0  0  0  0  0  0  0  0
    8.6500  -25.1760    6.6810 O   0  0  0  0  0  0  0  0  0  0  0  0
    8.9820  -23.9080    9.9470 C   0  0  0  0  0  0  0  0  0  0  0  0
    8.4750  -24.1050   11.0630 O   0  0  0  0  0  0  0  0  0  0  0  0
   13.0410  -17.7320    5.8380 O   0  0  0  0  0  0  0  0  0  0  0  0
   14.1260  -16.6390    5.5980 P   0  0  1  0  0  0  0  0  0  0  0  0
   14.0990  -15.9900    4.2530 O   0  0  0  0  0  0  0  0  0  0  0  0
   14.5820  -15.8350    6.7480 O   0  0  0  0  0  0  0  0  0  0  0  0
   15.5020  -17.8240    5.3780 C   0  0  0  0  0  0  0  0  0  0  0  0
   16.7210  -17.5110    7.6830 O   0  0  0  0  0  0  0  0  0  0  0  0
   16.7360  -18.7700    8.3320 C   0  0  1  0  0  0  0  0  0  0  0  0
   18.0690  -19.4330    8.0480 C   0  0  1  0  0  0  0  0  0  0  0  0
   18.1990  -19.6380    6.5390 C   0  0  1  0  0  0  0  0  0  0  0  0
   18.0750  -18.2640    5.7910 C   0  0  2  0  0  0  0  0  0  0  0  0
   16.7920  -17.4880    6.2030 C   0  0  1  0  0  0  0  0  0  0  0  0
   19.1390  -18.5970    8.5480 O   0  0  0  0  0  0  0  0  0  0  0  0
   19.4700  -20.2220    6.3190 O   0  0  0  0  0  0  0  0  0  0  0  0
   18.0930  -18.3970    4.3550 O   0  0  0  0  0  0  0  0  0  0  0  0
   16.5720  -18.5890    9.8510 C   0  0  0  0  0  0  0  0  0  0  0  0
   17.0680  -17.2930   10.2350 O   0  0  0  0  0  0  0  0  0  0  0  0
  1  2  2  6  0  0  0
  1 21  1  0  0  0  0
  1  4  1  0  0  0  0
  1  3  1  0  0  0  0
  4  5  1  0  0  0  0
  6  7  1  0  0  0  0
  6 10  1  0  0  0  0
  6 13  1  1  0  0  0
  7 12  1  6  0  0  0
  7  8  1  0  0  0  0
  8 11  1  6  0  0  0
  8  9  1  0  0  0  0
  9  5  1  1  0  0  0
  9 10  1  0  0  0  0
 13 17  1  0  0  0  0
 13 16  1  0  0  0  0
 14 17  1  0  0  0  0
 14 19  1  0  0  0  0
 15 16  2  0  0  0  0
 15 19  1  0  0  0  0
 17 18  2  0  0  0  0
 19 20  2  0  0  0  0
 21 22  1  0  0  0  0
 22 23  2  6  0  0  0
 22 25  1  0  0  0  0
 22 24  1  0  0  0  0
 26 31  1  0  0  0  0
 26 27  1  0  0  0  0
 27 28  1  0  0  0  0
 27 35  1  1  0  0  0
 28 29  1  0  0  0  0
 28 32  1  6  0  0  0
 29 30  1  0  0  0  0
 29 33  1  1  0  0  0
 30 34  1  6  0  0  0
 30 31  1  0  0  0  0
 31 25  1  6  0  0  0
 35 36  1  0  0  0  0
M  END
>  <MODEL>
       5

>  <COMPND>
    UNNAMED

>  <AUTHOR>
    GENERATED BY OPEN BABEL 2.4.90

>  <MASTER>
        0    0    0    0    0    0    0    0   36    0   36    0

