__2o1h_A_rec_1zj1_nlc_lig_min.pdb
 OpenBabel10181905223D

 26 27  0  0  1  0  0  0  0  0999 V2000
   17.1830   -6.6680    8.0100 C   0  0  2  0  0  0  0  0  0  0  0  0
   15.8870   -6.3020    7.5270 O   0  0  0  0  0  0  0  0  0  0  0  0
   18.0570   -7.1350    6.8420 C   0  0  1  0  0  0  0  0  0  0  0  0
   17.4870   -8.4240    6.2440 C   0  0  1  0  0  0  0  0  0  0  0  0
   18.3860   -8.9250    5.2520 O   0  0  0  0  0  0  0  0  0  0  0  0
   17.2980   -9.4830    7.3330 C   0  0  1  0  0  0  0  0  0  0  0  0
   16.4490   -8.9030    8.4550 C   0  0  2  0  0  0  0  0  0  0  0  0
   17.0660   -7.7170    8.9870 O   0  0  0  0  0  0  0  0  0  0  0  0
   18.0790   -6.0900    5.8100 N   0  0  0  0  0  0  0  0  0  0  0  0
   18.9850   -5.1160    5.7990 C   0  0  0  0  0  0  0  0  0  0  0  0
   18.8400   -4.1150    4.6500 C   0  0  0  0  0  0  0  0  0  0  0  0
   19.8810   -4.9960    6.6340 O   0  0  0  0  0  0  0  0  0  0  0  0
   16.2730   -9.9270    9.5790 C   0  0  0  0  0  0  0  0  0  0  0  0
   17.5330  -10.1800   10.2070 O   0  0  0  0  0  0  0  0  0  0  0  0
   16.6760  -10.6480    6.7720 O   0  0  0  0  0  0  0  0  0  0  0  0
   16.6670  -13.0600    6.6740 C   0  0  2  0  0  0  0  0  0  0  0  0
   15.4500  -13.1300    7.4210 O   0  0  0  0  0  0  0  0  0  0  0  0
   17.5090  -14.3120    6.9280 C   0  0  1  0  0  0  0  0  0  0  0  0
   16.8110  -15.4560    6.4330 O   0  0  0  0  0  0  0  0  0  0  0  0
   18.8560  -14.1840    6.2120 C   0  0  2  0  0  0  0  0  0  0  0  0
   19.5420  -12.8890    6.6510 C   0  0  2  0  0  0  0  0  0  0  0  0
   17.4570  -11.8120    7.0780 C   0  0  1  0  0  0  0  0  0  0  0  0
   18.6960  -11.7660    6.3490 O   0  0  0  0  0  0  0  0  0  0  0  0
   18.6300  -14.1500    4.8010 O   0  0  0  0  0  0  0  0  0  0  0  0
   20.8850  -12.7290    5.9330 C   0  0  0  0  0  0  0  0  0  0  0  0
   21.7240  -11.8430    6.6750 O   0  0  0  0  0  0  0  0  0  0  0  0
  1  3  1  0  0  0  0
  1  2  1  6  0  0  0
  1  8  1  0  0  0  0
  3  9  1  6  0  0  0
  3  4  1  0  0  0  0
  4  5  1  6  0  0  0
  4  6  1  0  0  0  0
  6 15  1  6  0  0  0
  6  7  1  0  0  0  0
  7  8  1  0  0  0  0
  7 13  1  1  0  0  0
  9 10  1  0  0  0  0
 10 11  1  0  0  0  0
 10 12  2  0  0  0  0
 13 14  1  0  0  0  0
 16 22  1  0  0  0  0
 16 18  1  0  0  0  0
 16 17  1  1  0  0  0
 18 20  1  0  0  0  0
 18 19  1  6  0  0  0
 20 24  1  6  0  0  0
 20 21  1  0  0  0  0
 21 25  1  6  0  0  0
 21 23  1  0  0  0  0
 22 15  1  6  0  0  0
 22 23  1  0  0  0  0
 25 26  1  0  0  0  0
M  END
>  <COMPND>
    UNNAMED

>  <AUTHOR>
    GENERATED BY OPEN BABEL 2.4.90

>  <MASTER>
        0    0    0    0    0    0    0    0   26    0   26    0

