__2o1h_A_rec_5c1g_da8_lig_min.pdb
 OpenBabel10171923283D

 27 28  0  0  1  0  0  0  0  0999 V2000
   17.8510  -11.1750    6.3670 C   0  0  2  0  0  0  0  0  0  0  0  0
   19.1950  -11.4120    5.9080 O   0  0  0  0  0  0  0  0  0  0  0  0
   19.7270  -12.5330    6.6290 C   0  0  1  0  0  0  0  0  0  0  0  0
   18.9060  -13.8120    6.3980 C   0  0  2  0  0  0  0  0  0  0  0  0
   18.9160  -14.1750    5.0280 O   0  0  0  0  0  0  0  0  0  0  0  0
   17.4850  -13.5020    6.8770 C   0  0  0  0  0  0  0  0  0  0  0  0
   16.9210  -12.3150    6.0470 C   0  0  1  0  0  0  0  0  0  0  0  0
   21.1860  -12.6450    6.1840 C   0  0  0  0  0  0  0  0  0  0  0  0
   21.9390  -11.5840    6.7760 O   0  0  0  0  0  0  0  0  0  0  0  0
   17.2320  -10.0810    5.7230 O   0  0  0  0  0  0  0  0  0  0  0  0
   17.9670   -8.9000    6.0130 C   0  0  0  0  0  0  0  0  0  0  0  0
   16.8970   -7.8280    6.1620 C   0  0  0  0  0  0  0  0  0  0  0  0
   15.8290   -8.4670    7.0660 C   0  0  0  0  0  0  0  0  0  0  0  0
   15.0800   -7.5040    7.9810 C   0  0  0  0  0  0  0  0  0  0  0  0
   12.7780   -7.0120    8.9220 C   0  0  0  0  0  0  0  0  0  0  0  0
   13.5840   -7.8070    7.8920 C   0  0  0  0  0  0  0  0  0  0  0  0
   15.6020  -12.0720    6.5460 O   0  0  0  0  0  0  0  0  0  0  0  0
   14.5920  -12.8390    5.8890 C   0  0  2  0  0  0  0  0  0  0  0  0
   14.5060  -12.3130    4.5390 O   0  0  0  0  0  0  0  0  0  0  0  0
   14.1520  -10.9090    4.5090 C   0  0  1  0  0  0  0  0  0  0  0  0
   14.1110  -10.4330    3.0560 C   0  0  0  0  0  0  0  0  0  0  0  0
   12.7880  -10.6960    5.1700 C   0  0  1  0  0  0  0  0  0  0  0  0
   11.7540  -11.3780    4.4610 O   0  0  0  0  0  0  0  0  0  0  0  0
   12.8840  -11.1790    6.6070 C   0  0  1  0  0  0  0  0  0  0  0  0
   11.6200  -11.0170    7.2500 O   0  0  0  0  0  0  0  0  0  0  0  0
   13.2540  -12.6550    6.6020 C   0  0  2  0  0  0  0  0  0  0  0  0
   13.3420  -13.0900    7.9530 O   0  0  0  0  0  0  0  0  0  0  0  0
  1  7  1  0  0  0  0
  1 10  1  6  0  0  0
  1  2  1  0  0  0  0
  2  3  1  0  0  0  0
  3  4  1  0  0  0  0
  3  8  1  6  0  0  0
  4  5  1  6  0  0  0
  4  6  1  0  0  0  0
  6  7  1  0  0  0  0
  7 17  1  1  0  0  0
  8  9  1  0  0  0  0
 10 11  1  0  0  0  0
 11 12  1  0  0  0  0
 12 13  1  0  0  0  0
 13 14  1  0  0  0  0
 14 16  1  0  0  0  0
 15 16  1  0  0  0  0
 18 17  1  1  0  0  0
 18 19  1  0  0  0  0
 18 26  1  0  0  0  0
 19 20  1  0  0  0  0
 20 21  1  6  0  0  0
 20 22  1  0  0  0  0
 22 23  1  6  0  0  0
 22 24  1  0  0  0  0
 24 26  1  0  0  0  0
 24 25  1  6  0  0  0
 26 27  1  1  0  0  0
M  END
>  <COMPND>
    UNNAMED

>  <AUTHOR>
    GENERATED BY OPEN BABEL 2.4.90

>  <MASTER>
        0    0    0    0    0    0    0    0   27    0   27    0

