__2o1h_A_rec_2rj5_udp_lig_min.pdb
 OpenBabel10181913003D

 25 26  0  0  1  0  0  0  0  0999 V2000
   10.4500  -23.4390    6.0350 C   0  0  1  0  0  0  0  0  0  0  0  0
    9.5520  -22.5360    5.1590 C   0  0  2  0  0  0  0  0  0  0  0  0
    9.5930  -22.8250    3.7240 O   0  0  0  0  0  0  0  0  0  0  0  0
   10.2050  -21.2090    5.3820 C   0  0  1  0  0  0  0  0  0  0  0  0
   11.6810  -21.6020    5.2720 C   0  0  2  0  0  0  0  0  0  0  0  0
   11.7730  -22.8370    6.0240 O   0  0  0  0  0  0  0  0  0  0  0  0
    9.8150  -20.3530    4.3140 O   0  0  0  0  0  0  0  0  0  0  0  0
    9.9520  -23.5450    7.4570 N   0  0  0  0  0  0  0  0  0  0  0  0
    8.8640  -24.3780    7.7340 C   0  0  0  0  0  0  0  0  0  0  0  0
    8.3710  -24.5140    9.0350 N   0  0  0  0  0  0  0  0  0  0  0  0
    8.9570  -23.8130   10.0890 C   0  0  0  0  0  0  0  0  0  0  0  0
   10.0420  -22.9720    9.8360 C   0  0  0  0  0  0  0  0  0  0  0  0
   10.5400  -22.8370    8.5330 C   0  0  0  0  0  0  0  0  0  0  0  0
    8.3410  -24.9970    6.8230 O   0  0  0  0  0  0  0  0  0  0  0  0
    8.4870  -23.9590   11.2270 O   0  0  0  0  0  0  0  0  0  0  0  0
   12.6390  -20.5530    5.8720 C   0  0  0  0  0  0  0  0  0  0  0  0
   12.0710  -19.9130    7.0020 O   0  0  0  0  0  0  0  0  0  0  0  0
   11.9490  -18.3100    7.0230 P   0  0  1  0  0  0  0  0  0  0  0  0
   11.1260  -17.8600    5.8730 O   0  0  0  0  0  0  0  0  0  0  0  0
   11.5120  -17.9600    8.3810 O   0  0  0  0  0  0  0  0  0  0  0  0
   13.4820  -17.8740    6.8540 O   0  0  0  0  0  0  0  0  0  0  0  0
   13.9730  -16.3580    6.6800 P   0  0  0  0  0  0  0  0  0  0  0  0
   12.9900  -15.4010    7.5450 O   0  0  0  0  0  0  0  0  0  0  0  0
   15.3950  -16.2280    7.0690 O   0  0  0  0  0  0  0  0  0  0  0  0
   13.7420  -15.9310    5.1480 O   0  0  0  0  0  0  0  0  0  0  0  0
  1  2  1  0  0  0  0
  1  6  1  0  0  0  0
  1  8  1  1  0  0  0
  2  3  1  6  0  0  0
  2  4  1  0  0  0  0
  4  7  1  6  0  0  0
  4  5  1  0  0  0  0
  5 16  1  1  0  0  0
  5  6  1  0  0  0  0
  8  9  1  0  0  0  0
  8 13  1  0  0  0  0
  9 14  2  0  0  0  0
  9 10  1  0  0  0  0
 10 11  1  0  0  0  0
 11 12  1  0  0  0  0
 11 15  2  0  0  0  0
 12 13  2  0  0  0  0
 16 17  1  0  0  0  0
 17 18  1  0  0  0  0
 18 19  2  6  0  0  0
 18 21  1  0  0  0  0
 18 20  1  0  0  0  0
 21 22  1  0  0  0  0
 22 25  2  0  0  0  0
 22 24  1  0  0  0  0
 22 23  1  0  0  0  0
M  END
>  <COMPND>
    UNNAMED

>  <AUTHOR>
    GENERATED BY OPEN BABEL 2.4.90

>  <MASTER>
        0    0    0    0    0    0    0    0   25    0   25    0

