__2rj0_A_rec_2o1h_udp_lig_docked.pdb
 OpenBabel10181921213D

 25 26  0  0  1  0  0  0  0  0999 V2000
   10.7140  -23.2100    6.1380 C   0  0  1  0  0  0  0  0  0  0  0  0
    9.6470  -22.5520    5.2730 C   0  0  2  0  0  0  0  0  0  0  0  0
    9.7680  -22.9340    3.9220 O   0  0  0  0  0  0  0  0  0  0  0  0
   10.1070  -21.1280    5.3040 C   0  0  1  0  0  0  0  0  0  0  0  0
   11.6330  -21.2640    5.2390 C   0  0  2  0  0  0  0  0  0  0  0  0
   11.9030  -22.4470    5.9730 O   0  0  0  0  0  0  0  0  0  0  0  0
    9.5130  -20.5040    4.1830 O   0  0  0  0  0  0  0  0  0  0  0  0
   10.2840  -23.2320    7.5560 N   0  0  0  0  0  0  0  0  0  0  0  0
    9.0910  -23.8800    7.8850 C   0  0  0  0  0  0  0  0  0  0  0  0
    8.6960  -23.9080    9.2430 N   0  0  0  0  0  0  0  0  0  0  0  0
    9.4700  -23.3060   10.2620 C   0  0  0  0  0  0  0  0  0  0  0  0
   10.6600  -22.6530    9.8930 C   0  0  0  0  0  0  0  0  0  0  0  0
   10.9240  -22.4780    8.5210 C   0  0  0  0  0  0  0  0  0  0  0  0
    8.4060  -24.4320    6.9960 O   0  0  0  0  0  0  0  0  0  0  0  0
    9.1090  -23.3240   11.4680 O   0  0  0  0  0  0  0  0  0  0  0  0
   12.4950  -20.1730    5.8660 C   0  0  0  0  0  0  0  0  0  0  0  0
   11.9030  -18.9160    5.6870 O   0  0  0  0  0  0  0  0  0  0  0  0
   11.6840  -17.9690    6.9670 P   0  0  1  0  0  0  0  0  0  0  0  0
   10.3050  -17.3650    6.9510 O   0  0  0  0  0  0  0  0  0  0  0  0
   11.8230  -18.6520    8.2940 O   0  0  0  0  0  0  0  0  0  0  0  0
   12.8720  -16.8910    6.7550 O   0  0  0  0  0  0  0  0  0  0  0  0
   13.0910  -16.0190    5.3990 P   0  0  0  0  0  0  0  0  0  0  0  0
   13.3310  -14.5740    5.6170 O   0  0  0  0  0  0  0  0  0  0  0  0
   14.3330  -16.5450    4.7640 O   0  0  0  0  0  0  0  0  0  0  0  0
   11.8720  -16.2330    4.5520 O   0  0  0  0  0  0  0  0  0  0  0  0
  1  2  1  0  0  0  0
  1  6  1  0  0  0  0
  1  8  1  1  0  0  0
  2  3  1  6  0  0  0
  2  4  1  0  0  0  0
  4  7  1  6  0  0  0
  4  5  1  0  0  0  0
  5  6  1  0  0  0  0
  5 16  1  1  0  0  0
  8  9  1  0  0  0  0
  8 13  1  0  0  0  0
  9 14  2  0  0  0  0
  9 10  1  0  0  0  0
 10 11  1  0  0  0  0
 11 12  1  0  0  0  0
 11 15  2  0  0  0  0
 12 13  1  0  0  0  0
 16 17  1  0  0  0  0
 17 18  1  0  0  0  0
 18 19  2  6  0  0  0
 18 21  1  0  0  0  0
 18 20  1  0  0  0  0
 21 22  1  0  0  0  0
 22 23  2  0  0  0  0
 22 25  1  0  0  0  0
 22 24  1  0  0  0  0
M  END
>  <MODEL>
       2

>  <COMPND>
    UNNAMED

>  <AUTHOR>
    GENERATED BY OPEN BABEL 2.4.90

>  <MASTER>
        0    0    0    0    0    0    0    0   25    0   25    0

