__2rj0_A_rec_4kc1_ws1_lig_min.pdb
 OpenBabel10181910413D

 27 29  0  0  1  0  0  0  0  0999 V2000
   10.5150  -23.2320    6.1150 C   0  0  2  0  0  0  0  0  0  0  0  0
   11.8500  -22.7180    6.0370 O   0  0  0  0  0  0  0  0  0  0  0  0
    9.6310  -22.3110    5.2790 C   0  0  2  0  0  0  0  0  0  0  0  0
    9.5260  -22.7920    3.9250 O   0  0  0  0  0  0  0  0  0  0  0  0
   10.4290  -21.0290    5.2830 C   0  0  2  0  0  0  0  0  0  0  0  0
   10.0770  -20.1810    4.1880 O   0  0  0  0  0  0  0  0  0  0  0  0
   11.8690  -21.5390    5.2240 C   0  0  1  0  0  0  0  0  0  0  0  0
    8.7290  -23.6450   11.2840 O   0  0  0  0  0  0  0  0  0  0  0  0
    9.1560  -23.5350   10.1090 C   0  0  0  0  0  0  0  0  0  0  0  0
    8.4540  -24.0760    9.1020 N   0  0  0  0  0  0  0  0  0  0  0  0
    8.8830  -23.9800    7.8390 C   0  0  0  0  0  0  0  0  0  0  0  0
    8.2110  -24.4890    6.9240 O   0  0  0  0  0  0  0  0  0  0  0  0
   10.3490  -22.8590    9.8400 C   0  0  0  0  0  0  0  0  0  0  0  0
   10.7990  -22.7520    8.5230 C   0  0  0  0  0  0  0  0  0  0  0  0
   10.0800  -23.3020    7.5250 N   0  0  0  0  0  0  0  0  0  0  0  0
   12.9590  -20.5760    5.7080 C   0  0  0  0  0  0  0  0  0  0  0  0
   12.5680  -19.7920    6.8710 N   0  0  0  0  0  0  0  0  0  0  0  0
   12.2200  -18.5110    6.7430 C   0  0  0  0  0  0  0  0  0  0  0  0
   11.9770  -18.0090    5.6450 O   0  0  0  0  0  0  0  0  0  0  0  0
   12.1150  -17.6250    7.9510 C   0  0  0  0  0  0  0  0  0  0  0  0
   13.0050  -17.7050    9.0240 C   0  0  0  0  0  0  0  0  0  0  0  0
   12.8310  -16.8400   10.1070 C   0  0  0  0  0  0  0  0  0  0  0  0
   11.7800  -15.9190   10.0960 C   0  0  0  0  0  0  0  0  0  0  0  0
   10.9210  -15.8770    9.0000 C   0  0  0  0  0  0  0  0  0  0  0  0
   11.1060  -16.7270    7.9660 N   0  0  0  0  0  0  0  0  0  0  0  0
    9.7690  -14.8990    8.9350 C   0  0  0  0  0  0  0  0  0  0  0  0
    9.0690  -15.1100    7.7050 O   0  0  0  0  0  0  0  0  0  0  0  0
  1  3  1  0  0  0  0
  1  2  1  0  0  0  0
  1 15  1  1  0  0  0
  2  7  1  0  0  0  0
  3  4  1  6  0  0  0
  3  5  1  0  0  0  0
  5  6  1  6  0  0  0
  5  7  1  0  0  0  0
  7 16  1  1  0  0  0
  8  9  2  0  0  0  0
  9 10  1  0  0  0  0
  9 13  1  0  0  0  0
 10 11  1  0  0  0  0
 11 12  2  0  0  0  0
 11 15  1  0  0  0  0
 13 14  2  0  0  0  0
 14 15  1  0  0  0  0
 16 17  1  0  0  0  0
 17 18  1  0  0  0  0
 18 19  2  0  0  0  0
 18 20  1  0  0  0  0
 20 25  2  0  0  0  0
 20 21  1  0  0  0  0
 21 22  2  0  0  0  0
 22 23  1  0  0  0  0
 23 24  2  0  0  0  0
 24 25  1  0  0  0  0
 24 26  1  0  0  0  0
 26 27  1  0  0  0  0
M  END
>  <COMPND>
    UNNAMED

>  <AUTHOR>
    GENERATED BY OPEN BABEL 2.4.90

>  <MASTER>
        0    0    0    0    0    0    0    0   27    0   27    0

