__2rj0_A_rec_5c3d_urm_lig_min.pdb
 OpenBabel10171922353D

 36 38  0  0  1  0  0  0  0  0999 V2000
   12.0380  -18.3740    6.8600 P   0  0  1  0  0  0  0  0  0  0  0  0
   11.2440  -18.0250    5.6090 O   0  0  0  0  0  0  0  0  0  0  0  0
   11.5210  -18.0320    8.2370 O   0  0  0  0  0  0  0  0  0  0  0  0
   12.3970  -19.9250    6.9030 O   0  0  0  0  0  0  0  0  0  0  0  0
   12.8600  -20.5350    5.7080 C   0  0  0  0  0  0  0  0  0  0  0  0
   10.6630  -23.3180    6.1950 C   0  0  1  0  0  0  0  0  0  0  0  0
    9.7100  -22.4990    5.3320 C   0  0  1  0  0  0  0  0  0  0  0  0
   10.3720  -21.1510    5.3340 C   0  0  1  0  0  0  0  0  0  0  0  0
   11.8410  -21.5630    5.2510 C   0  0  2  0  0  0  0  0  0  0  0  0
   11.9530  -22.7140    6.0920 O   0  0  0  0  0  0  0  0  0  0  0  0
    9.9300  -20.3040    4.2580 O   0  0  0  0  0  0  0  0  0  0  0  0
    9.7040  -23.0080    3.9860 O   0  0  0  0  0  0  0  0  0  0  0  0
   10.2390  -23.3050    7.6110 N   0  0  0  0  0  0  0  0  0  0  0  0
    8.6020  -23.9510    9.2100 N   0  0  0  0  0  0  0  0  0  0  0  0
   10.5360  -22.7680    9.9190 C   0  0  0  0  0  0  0  0  0  0  0  0
   10.9920  -22.7410    8.5990 C   0  0  0  0  0  0  0  0  0  0  0  0
    9.0160  -23.9220    7.9320 C   0  0  0  0  0  0  0  0  0  0  0  0
    8.3210  -24.4500    7.0370 O   0  0  0  0  0  0  0  0  0  0  0  0
    9.3240  -23.3940   10.2000 C   0  0  0  0  0  0  0  0  0  0  0  0
    8.8820  -23.4360   11.3810 O   0  0  0  0  0  0  0  0  0  0  0  0
   13.5160  -17.7380    6.6710 O   0  0  0  0  0  0  0  0  0  0  0  0
   13.8520  -16.2690    6.1060 P   0  0  1  0  0  0  0  0  0  0  0  0
   13.4740  -16.1610    4.5500 O   0  0  0  0  0  0  0  0  0  0  0  0
   13.2690  -15.2190    6.9830 O   0  0  0  0  0  0  0  0  0  0  0  0
   15.6490  -16.1670    6.2880 C   0  0  0  0  0  0  0  0  0  0  0  0
   15.6550  -13.7130    5.8760 O   0  0  0  0  0  0  0  0  0  0  0  0
   16.1870  -13.2080    7.1130 C   0  0  1  0  0  0  0  0  0  0  0  0
   17.6810  -12.9310    6.9360 C   0  0  1  0  0  0  0  0  0  0  0  0
   18.3780  -14.2430    6.5960 C   0  0  1  0  0  0  0  0  0  0  0  0
   17.7260  -14.9370    5.3960 C   0  0  2  0  0  0  0  0  0  0  0  0
   16.1880  -14.9980    5.4440 C   0  0  1  0  0  0  0  0  0  0  0  0
   17.8640  -11.9920    5.8730 O   0  0  0  0  0  0  0  0  0  0  0  0
   19.7310  -13.9300    6.2350 O   0  0  0  0  0  0  0  0  0  0  0  0
   18.2570  -16.2530    5.2670 O   0  0  0  0  0  0  0  0  0  0  0  0
   15.4040  -11.9910    7.5880 C   0  0  0  0  0  0  0  0  0  0  0  0
   14.0150  -12.3450    7.5980 O   0  0  0  0  0  0  0  0  0  0  0  0
  1  2  2  6  0  0  0
  1 21  1  0  0  0  0
  1  4  1  0  0  0  0
  1  3  1  0  0  0  0
  4  5  1  0  0  0  0
  6  7  1  0  0  0  0
  6 10  1  0  0  0  0
  6 13  1  1  0  0  0
  7 12  1  6  0  0  0
  7  8  1  0  0  0  0
  8 11  1  6  0  0  0
  8  9  1  0  0  0  0
  9  5  1  1  0  0  0
  9 10  1  0  0  0  0
 13 17  1  0  0  0  0
 13 16  1  0  0  0  0
 14 17  1  0  0  0  0
 14 19  1  0  0  0  0
 15 16  2  0  0  0  0
 15 19  1  0  0  0  0
 17 18  2  0  0  0  0
 19 20  2  0  0  0  0
 21 22  1  0  0  0  0
 22 23  2  6  0  0  0
 22 25  1  0  0  0  0
 22 24  1  0  0  0  0
 26 31  1  0  0  0  0
 26 27  1  0  0  0  0
 27 28  1  0  0  0  0
 27 35  1  6  0  0  0
 28 32  1  6  0  0  0
 28 29  1  0  0  0  0
 29 30  1  0  0  0  0
 29 33  1  6  0  0  0
 30 34  1  1  0  0  0
 30 31  1  0  0  0  0
 31 25  1  1  0  0  0
 35 36  1  0  0  0  0
M  END
>  <COMPND>
    UNNAMED

>  <AUTHOR>
    GENERATED BY OPEN BABEL 2.4.90

>  <MASTER>
        0    0    0    0    0    0    0    0   36    0   36    0

