__2rj1_A_rec_2rj7_gdu_lig_docked.pdb
 OpenBabel10181916093D

 36 38  0  0  1  0  0  0  0  0999 V2000
   11.7550  -18.2530    7.0260 P   0  0  1  0  0  0  0  0  0  0  0  0
   10.6400  -17.3050    6.7940 O   0  0  0  0  0  0  0  0  0  0  0  0
   11.6870  -19.1580    8.1820 O   0  0  0  0  0  0  0  0  0  0  0  0
   11.9660  -19.1220    5.6470 O   0  0  0  0  0  0  0  0  0  0  0  0
   12.6880  -20.3710    5.7040 C   0  0  0  0  0  0  0  0  0  0  0  0
   10.6420  -23.3000    6.2600 C   0  0  1  0  0  0  0  0  0  0  0  0
    9.6760  -22.5520    5.3250 C   0  0  2  0  0  0  0  0  0  0  0  0
    9.7520  -23.1390    4.0100 O   0  0  0  0  0  0  0  0  0  0  0  0
   10.3030  -21.1680    5.3160 C   0  0  1  0  0  0  0  0  0  0  0  0
   11.8030  -21.5420    5.2810 C   0  0  2  0  0  0  0  0  0  0  0  0
   11.9320  -22.5980    6.2570 O   0  0  0  0  0  0  0  0  0  0  0  0
    9.9470  -20.4760    4.1230 O   0  0  0  0  0  0  0  0  0  0  0  0
   10.1360  -23.2770    7.6450 N   0  0  0  0  0  0  0  0  0  0  0  0
    8.9490  -24.0060    7.9060 C   0  0  0  0  0  0  0  0  0  0  0  0
    8.4160  -24.0290    9.1860 N   0  0  0  0  0  0  0  0  0  0  0  0
    9.0250  -23.3850   10.2870 C   0  0  0  0  0  0  0  0  0  0  0  0
   10.3060  -22.5660   10.1220 C   0  0  0  0  0  0  0  0  0  0  0  0
   10.8980  -22.5380    8.7030 C   0  0  0  0  0  0  0  0  0  0  0  0
    8.3750  -24.5860    6.9810 O   0  0  0  0  0  0  0  0  0  0  0  0
    8.5010  -23.4500   11.4080 O   0  0  0  0  0  0  0  0  0  0  0  0
   13.1570  -17.4550    7.0550 O   0  0  0  0  0  0  0  0  0  0  0  0
   13.3190  -15.9830    6.3220 P   0  0  2  0  0  0  0  0  0  0  0  0
   12.7500  -15.0060    7.2810 O   0  0  0  0  0  0  0  0  0  0  0  0
   12.8040  -15.9650    4.9270 O   0  0  0  0  0  0  0  0  0  0  0  0
   14.8910  -15.7800    6.3220 O   0  0  0  0  0  0  0  0  0  0  0  0
   16.0130  -16.2840    5.4260 C   0  0  2  0  0  0  0  0  0  0  0  0
   15.9610  -17.1480    4.1200 C   0  0  1  0  0  0  0  0  0  0  0  0
   15.6410  -18.6240    4.4010 C   0  0  2  0  0  0  0  0  0  0  0  0
   16.5980  -19.2350    5.4490 C   0  0  2  0  0  0  0  0  0  0  0  0
   16.6550  -18.3570    6.7220 C   0  0  2  0  0  0  0  0  0  0  0  0
   15.0700  -16.5810    3.1460 O   0  0  0  0  0  0  0  0  0  0  0  0
   15.7260  -19.3500    3.1790 O   0  0  0  0  0  0  0  0  0  0  0  0
   17.9020  -19.3700    4.8790 O   0  0  0  0  0  0  0  0  0  0  0  0
   16.9390  -16.9840    6.3280 O   0  0  0  0  0  0  0  0  0  0  0  0
   17.7620  -18.6760    7.7670 C   0  0  0  0  0  0  0  0  0  0  0  0
   17.9680  -20.1050    7.7580 O   0  0  0  0  0  0  0  0  0  0  0  0
  1  2  2  6  0  0  0
  1 21  1  0  0  0  0
  1  4  1  0  0  0  0
  1  3  1  0  0  0  0
  4  5  1  0  0  0  0
  6  7  1  0  0  0  0
  6 11  1  0  0  0  0
  6 13  1  1  0  0  0
  7  8  1  6  0  0  0
  7  9  1  0  0  0  0
  9 12  1  6  0  0  0
  9 10  1  0  0  0  0
 10  5  1  1  0  0  0
 10 11  1  0  0  0  0
 13 14  1  0  0  0  0
 13 18  1  0  0  0  0
 14 19  2  0  0  0  0
 14 15  1  0  0  0  0
 15 16  1  0  0  0  0
 16 17  1  0  0  0  0
 16 20  2  0  0  0  0
 17 18  2  0  0  0  0
 21 22  1  0  0  0  0
 22 24  2  6  0  0  0
 22 25  1  0  0  0  0
 22 23  1  0  0  0  0
 26 25  1  1  0  0  0
 26 27  1  0  0  0  0
 26 34  1  0  0  0  0
 27 31  1  6  0  0  0
 27 28  1  0  0  0  0
 28 32  1  6  0  0  0
 28 29  1  0  0  0  0
 29 33  1  6  0  0  0
 29 30  1  0  0  0  0
 30 34  1  0  0  0  0
 30 35  1  1  0  0  0
 35 36  1  0  0  0  0
M  END
>  <MODEL>
       1

>  <COMPND>
    UNNAMED

>  <AUTHOR>
    GENERATED BY OPEN BABEL 2.4.90

>  <MASTER>
        0    0    0    0    0    0    0    0   36    0   36    0

