__2rj1_A_rec_2a8u_udp_lig_docked.pdb
 OpenBabel10181916153D

 25 26  0  0  1  0  0  0  0  0999 V2000
   10.6200  -23.2710    6.4180 C   0  0  1  0  0  0  0  0  0  0  0  0
    9.6960  -22.4620    5.5040 C   0  0  2  0  0  0  0  0  0  0  0  0
    9.7060  -23.0200    4.1870 O   0  0  0  0  0  0  0  0  0  0  0  0
   10.4030  -21.1090    5.5060 C   0  0  1  0  0  0  0  0  0  0  0  0
   11.8260  -21.6290    5.3090 C   0  0  2  0  0  0  0  0  0  0  0  0
   11.9320  -22.6920    6.2700 O   0  0  0  0  0  0  0  0  0  0  0  0
   10.0040  -20.3660    4.3510 O   0  0  0  0  0  0  0  0  0  0  0  0
   10.1970  -23.1400    7.8310 N   0  0  0  0  0  0  0  0  0  0  0  0
    9.0260  -23.7750    8.2710 C   0  0  0  0  0  0  0  0  0  0  0  0
    8.6560  -23.6770    9.6170 N   0  0  0  0  0  0  0  0  0  0  0  0
    9.4490  -22.9510   10.5180 C   0  0  0  0  0  0  0  0  0  0  0  0
   10.6070  -22.3190   10.0800 C   0  0  0  0  0  0  0  0  0  0  0  0
   10.9780  -22.4140    8.7430 C   0  0  0  0  0  0  0  0  0  0  0  0
    8.3260  -24.4070    7.4810 O   0  0  0  0  0  0  0  0  0  0  0  0
    9.1140  -22.8690   11.6990 O   0  0  0  0  0  0  0  0  0  0  0  0
   12.9140  -20.5660    5.4820 C   0  0  0  0  0  0  0  0  0  0  0  0
   12.3680  -19.2800    5.7870 O   0  0  0  0  0  0  0  0  0  0  0  0
   12.6310  -18.5820    7.2150 P   0  0  1  0  0  0  0  0  0  0  0  0
   11.2480  -17.8890    7.6630 O   0  0  0  0  0  0  0  0  0  0  0  0
   13.1350  -19.5260    8.2390 O   0  0  0  0  0  0  0  0  0  0  0  0
   13.6690  -17.3770    6.9550 O   0  0  0  0  0  0  0  0  0  0  0  0
   13.1840  -16.0100    6.2560 P   0  0  0  0  0  0  0  0  0  0  0  0
   11.9550  -16.3990    5.2920 O   0  0  0  0  0  0  0  0  0  0  0  0
   12.5550  -15.1020    7.4270 O   0  0  0  0  0  0  0  0  0  0  0  0
   14.2650  -15.3070    5.5290 O   0  0  0  0  0  0  0  0  0  0  0  0
  1  2  1  0  0  0  0
  1  6  1  0  0  0  0
  1  8  1  1  0  0  0
  2  3  1  6  0  0  0
  2  4  1  0  0  0  0
  4  7  1  6  0  0  0
  4  5  1  0  0  0  0
  5 16  1  1  0  0  0
  5  6  1  0  0  0  0
  8  9  1  0  0  0  0
  8 13  1  0  0  0  0
  9 14  2  0  0  0  0
  9 10  1  0  0  0  0
 10 11  1  0  0  0  0
 11 12  1  0  0  0  0
 11 15  2  0  0  0  0
 12 13  2  0  0  0  0
 16 17  1  0  0  0  0
 17 18  1  0  0  0  0
 18 19  2  1  0  0  0
 18 21  1  0  0  0  0
 18 20  1  0  0  0  0
 21 22  1  0  0  0  0
 22 25  2  0  0  0  0
 22 23  1  0  0  0  0
 22 24  1  0  0  0  0
M  END
>  <MODEL>
       3

>  <COMPND>
    UNNAMED

>  <AUTHOR>
    GENERATED BY OPEN BABEL 2.4.90

>  <MASTER>
        0    0    0    0    0    0    0    0   25    0   25    0

