__2rj1_A_rec_1zj2_udp_lig_docked.pdb
 OpenBabel10181916113D

 25 26  0  0  1  0  0  0  0  0999 V2000
   10.6190  -23.2650    6.2430 C   0  0  1  0  0  0  0  0  0  0  0  0
    9.7250  -22.3710    5.3770 C   0  0  2  0  0  0  0  0  0  0  0  0
    9.6960  -22.8570    4.0320 O   0  0  0  0  0  0  0  0  0  0  0  0
   10.4970  -21.0570    5.4480 C   0  0  1  0  0  0  0  0  0  0  0  0
   11.8990  -21.6200    5.2180 C   0  0  2  0  0  0  0  0  0  0  0  0
   11.9640  -22.7840    6.0590 O   0  0  0  0  0  0  0  0  0  0  0  0
   10.1250  -20.2290    4.3420 O   0  0  0  0  0  0  0  0  0  0  0  0
   10.2430  -23.1320    7.6700 N   0  0  0  0  0  0  0  0  0  0  0  0
    9.0770  -23.7580    8.1280 C   0  0  0  0  0  0  0  0  0  0  0  0
    8.7230  -23.6550    9.4810 N   0  0  0  0  0  0  0  0  0  0  0  0
    9.5330  -22.9310   10.3660 C   0  0  0  0  0  0  0  0  0  0  0  0
   10.6900  -22.3090    9.9100 C   0  0  0  0  0  0  0  0  0  0  0  0
   11.0420  -22.4090    8.5680 C   0  0  0  0  0  0  0  0  0  0  0  0
    8.3630  -24.3800    7.3420 O   0  0  0  0  0  0  0  0  0  0  0  0
    9.2200  -22.8450   11.5520 O   0  0  0  0  0  0  0  0  0  0  0  0
   12.9820  -20.6020    5.5710 C   0  0  0  0  0  0  0  0  0  0  0  0
   12.4000  -19.3250    5.8400 O   0  0  0  0  0  0  0  0  0  0  0  0
   12.6450  -18.6390    7.2740 P   0  0  1  0  0  0  0  0  0  0  0  0
   11.2240  -18.0450    7.7450 O   0  0  0  0  0  0  0  0  0  0  0  0
   13.2350  -19.5540    8.2780 O   0  0  0  0  0  0  0  0  0  0  0  0
   13.6010  -17.3810    6.9600 O   0  0  0  0  0  0  0  0  0  0  0  0
   13.1070  -16.0780    6.1530 P   0  0  0  0  0  0  0  0  0  0  0  0
   11.8240  -16.5270    5.2910 O   0  0  0  0  0  0  0  0  0  0  0  0
   12.5540  -15.0710    7.2800 O   0  0  0  0  0  0  0  0  0  0  0  0
   14.1460  -15.4250    5.3230 O   0  0  0  0  0  0  0  0  0  0  0  0
  1  2  1  0  0  0  0
  1  6  1  0  0  0  0
  1  8  1  1  0  0  0
  2  3  1  6  0  0  0
  2  4  1  0  0  0  0
  4  7  1  6  0  0  0
  4  5  1  0  0  0  0
  5 16  1  1  0  0  0
  5  6  1  0  0  0  0
  8  9  1  0  0  0  0
  8 13  1  0  0  0  0
  9 14  2  0  0  0  0
  9 10  1  0  0  0  0
 10 11  1  0  0  0  0
 11 12  1  0  0  0  0
 11 15  2  0  0  0  0
 12 13  2  0  0  0  0
 16 17  1  0  0  0  0
 17 18  1  0  0  0  0
 18 19  2  1  0  0  0
 18 21  1  0  0  0  0
 18 20  1  0  0  0  0
 21 22  1  0  0  0  0
 22 25  2  0  0  0  0
 22 24  1  0  0  0  0
 22 23  1  0  0  0  0
M  END
>  <MODEL>
       2

>  <COMPND>
    UNNAMED

>  <AUTHOR>
    GENERATED BY OPEN BABEL 2.4.90

>  <MASTER>
        0    0    0    0    0    0    0    0   25    0   25    0

