__2rj1_A_rec_2rj1_udp_lig_docked.pdb
 OpenBabel10181916103D

 25 26  0  0  1  0  0  0  0  0999 V2000
   10.4580  -23.2060    6.1540 C   0  0  1  0  0  0  0  0  0  0  0  0
    9.5910  -22.2540    5.3290 C   0  0  2  0  0  0  0  0  0  0  0  0
    9.4700  -22.7670    3.9960 O   0  0  0  0  0  0  0  0  0  0  0  0
   10.4760  -21.0240    5.2980 C   0  0  1  0  0  0  0  0  0  0  0  0
   11.8890  -21.6360    5.1350 C   0  0  2  0  0  0  0  0  0  0  0  0
   11.8490  -22.8220    5.9680 O   0  0  0  0  0  0  0  0  0  0  0  0
   10.1570  -20.1540    4.1970 O   0  0  0  0  0  0  0  0  0  0  0  0
   10.1140  -23.1330    7.5890 N   0  0  0  0  0  0  0  0  0  0  0  0
    8.9820  -23.8510    8.0070 C   0  0  0  0  0  0  0  0  0  0  0  0
    8.6330  -23.8310    9.3610 N   0  0  0  0  0  0  0  0  0  0  0  0
    9.3760  -23.1170   10.2870 C   0  0  0  0  0  0  0  0  0  0  0  0
   10.5110  -22.4000    9.8670 C   0  0  0  0  0  0  0  0  0  0  0  0
   10.8830  -22.4170    8.5190 C   0  0  0  0  0  0  0  0  0  0  0  0
    8.3160  -24.4820    7.1860 O   0  0  0  0  0  0  0  0  0  0  0  0
    9.0080  -23.1450   11.4660 O   0  0  0  0  0  0  0  0  0  0  0  0
   13.0430  -20.7120    5.5730 C   0  0  0  0  0  0  0  0  0  0  0  0
   12.5470  -19.4330    5.8850 O   0  0  0  0  0  0  0  0  0  0  0  0
   12.7740  -18.8720    7.3630 P   0  0  1  0  0  0  0  0  0  0  0  0
   11.4550  -18.7120    8.0130 O   0  0  0  0  0  0  0  0  0  0  0  0
   13.8000  -19.7300    7.9940 O   0  0  0  0  0  0  0  0  0  0  0  0
   13.4490  -17.4290    7.0620 O   0  0  0  0  0  0  0  0  0  0  0  0
   12.9420  -16.3260    6.0070 P   0  0  0  0  0  0  0  0  0  0  0  0
   14.0050  -16.2580    4.7980 O   0  0  0  0  0  0  0  0  0  0  0  0
   11.5980  -16.8230    5.5560 O   0  0  0  0  0  0  0  0  0  0  0  0
   12.7780  -14.9330    6.7430 O   0  0  0  0  0  0  0  0  0  0  0  0
  1  2  1  0  0  0  0
  1  6  1  0  0  0  0
  1  8  1  1  0  0  0
  2  3  1  6  0  0  0
  2  4  1  0  0  0  0
  4  7  1  6  0  0  0
  4  5  1  0  0  0  0
  5 16  1  1  0  0  0
  5  6  1  0  0  0  0
  8  9  1  0  0  0  0
  8 13  1  0  0  0  0
  9 14  2  0  0  0  0
  9 10  1  0  0  0  0
 10 11  1  0  0  0  0
 11 12  1  0  0  0  0
 11 15  2  0  0  0  0
 12 13  2  0  0  0  0
 16 17  1  0  0  0  0
 17 18  1  0  0  0  0
 18 19  2  1  0  0  0
 18 21  1  0  0  0  0
 18 20  1  0  0  0  0
 21 22  1  0  0  0  0
 22 25  2  0  0  0  0
 22 24  1  0  0  0  0
 22 23  1  0  0  0  0
M  END
>  <MODEL>
       2

>  <COMPND>
    UNNAMED

>  <AUTHOR>
    GENERATED BY OPEN BABEL 2.4.90

>  <MASTER>
        0    0    0    0    0    0    0    0   25    0   25    0

