__2rj1_A_rec_1zjp_udp_lig_docked.pdb
 OpenBabel10181916133D

 25 26  0  0  1  0  0  0  0  0999 V2000
   10.5710  -23.2160    6.0780 C   0  0  1  0  0  0  0  0  0  0  0  0
    9.7070  -22.3310    5.1770 C   0  0  2  0  0  0  0  0  0  0  0  0
    9.8240  -22.7630    3.8190 O   0  0  0  0  0  0  0  0  0  0  0  0
   10.3980  -20.9800    5.3540 C   0  0  1  0  0  0  0  0  0  0  0  0
   11.8350  -21.4800    5.2040 C   0  0  2  0  0  0  0  0  0  0  0  0
   11.8850  -22.6230    6.0720 O   0  0  0  0  0  0  0  0  0  0  0  0
   10.0700  -20.1320    4.2510 O   0  0  0  0  0  0  0  0  0  0  0  0
   10.0600  -23.2130    7.4690 N   0  0  0  0  0  0  0  0  0  0  0  0
    8.9270  -23.9710    7.7980 C   0  0  0  0  0  0  0  0  0  0  0  0
    8.4820  -23.9980    9.1270 N   0  0  0  0  0  0  0  0  0  0  0  0
    9.1620  -23.2740   10.1160 C   0  0  0  0  0  0  0  0  0  0  0  0
   10.2840  -22.5200    9.7860 C   0  0  0  0  0  0  0  0  0  0  0  0
   10.7270  -22.4910    8.4680 C   0  0  0  0  0  0  0  0  0  0  0  0
    8.3190  -24.5990    6.9320 O   0  0  0  0  0  0  0  0  0  0  0  0
    8.7640  -23.3040   11.2790 O   0  0  0  0  0  0  0  0  0  0  0  0
   12.9000  -20.4310    5.5290 C   0  0  0  0  0  0  0  0  0  0  0  0
   12.3290  -19.1370    5.7420 O   0  0  0  0  0  0  0  0  0  0  0  0
   12.5380  -18.3660    7.1410 P   0  0  1  0  0  0  0  0  0  0  0  0
   11.4130  -18.9160    8.1530 O   0  0  0  0  0  0  0  0  0  0  0  0
   13.9010  -18.5270    7.6950 O   0  0  0  0  0  0  0  0  0  0  0  0
   12.1850  -16.8190    6.8600 O   0  0  0  0  0  0  0  0  0  0  0  0
   13.1550  -15.8790    5.9810 P   0  0  0  0  0  0  0  0  0  0  0  0
   13.6630  -15.0220    7.2480 O   0  0  0  0  0  0  0  0  0  0  0  0
   11.9370  -15.1630    5.2090 O   0  0  0  0  0  0  0  0  0  0  0  0
   13.9950  -16.9120    5.3360 O   0  0  0  0  0  0  0  0  0  0  0  0
  1  2  1  0  0  0  0
  1  6  1  0  0  0  0
  1  8  1  1  0  0  0
  2  3  1  6  0  0  0
  2  4  1  0  0  0  0
  4  7  1  6  0  0  0
  4  5  1  0  0  0  0
  5 16  1  1  0  0  0
  5  6  1  0  0  0  0
  8  9  1  0  0  0  0
  8 13  1  0  0  0  0
  9 14  2  0  0  0  0
  9 10  1  0  0  0  0
 10 11  1  0  0  0  0
 11 12  1  0  0  0  0
 11 15  2  0  0  0  0
 12 13  2  0  0  0  0
 16 17  1  0  0  0  0
 17 18  1  0  0  0  0
 18 19  2  1  0  0  0
 18 21  1  0  0  0  0
 18 20  1  0  0  0  0
 21 22  1  0  0  0  0
 22 23  2  0  0  0  0
 22 25  1  0  0  0  0
 22 24  1  0  0  0  0
M  END
>  <MODEL>
       3

>  <COMPND>
    UNNAMED

>  <AUTHOR>
    GENERATED BY OPEN BABEL 2.4.90

>  <MASTER>
        0    0    0    0    0    0    0    0   25    0   25    0

