__2rj4_A_rec_2o1h_udp_lig_min.pdb
 OpenBabel10181902123D

 25 26  0  0  1  0  0  0  0  0999 V2000
   10.5180  -23.3570    5.9430 C   0  0  1  0  0  0  0  0  0  0  0  0
    9.5920  -22.4620    5.1300 C   0  0  2  0  0  0  0  0  0  0  0  0
    9.6120  -22.8040    3.7630 O   0  0  0  0  0  0  0  0  0  0  0  0
   10.3290  -21.1620    5.2040 C   0  0  1  0  0  0  0  0  0  0  0  0
   11.7950  -21.5980    5.0980 C   0  0  2  0  0  0  0  0  0  0  0  0
   11.8330  -22.8410    5.7790 O   0  0  0  0  0  0  0  0  0  0  0  0
    9.8550  -20.3860    4.1220 O   0  0  0  0  0  0  0  0  0  0  0  0
   10.1150  -23.3510    7.3700 N   0  0  0  0  0  0  0  0  0  0  0  0
    8.9370  -24.0070    7.7360 C   0  0  0  0  0  0  0  0  0  0  0  0
    8.5680  -24.0080    9.1020 N   0  0  0  0  0  0  0  0  0  0  0  0
    9.3520  -23.3740   10.0920 C   0  0  0  0  0  0  0  0  0  0  0  0
   10.5270  -22.7140    9.6850 C   0  0  0  0  0  0  0  0  0  0  0  0
   10.7630  -22.5670    8.3060 C   0  0  0  0  0  0  0  0  0  0  0  0
    8.2430  -24.5880    6.8730 O   0  0  0  0  0  0  0  0  0  0  0  0
    9.0140  -23.3680   11.3050 O   0  0  0  0  0  0  0  0  0  0  0  0
   12.8680  -20.7290    5.7450 C   0  0  0  0  0  0  0  0  0  0  0  0
   12.3370  -20.0170    6.8280 O   0  0  0  0  0  0  0  0  0  0  0  0
   12.1890  -18.4210    6.7120 P   0  0  1  0  0  0  0  0  0  0  0  0
   11.6090  -18.0370    5.3760 O   0  0  0  0  0  0  0  0  0  0  0  0
   11.3070  -17.7870    7.7450 O   0  0  0  0  0  0  0  0  0  0  0  0
   13.7250  -17.9560    6.9140 O   0  0  0  0  0  0  0  0  0  0  0  0
   14.2360  -16.4130    6.8520 P   0  0  0  0  0  0  0  0  0  0  0  0
   13.2030  -15.3990    7.1670 O   0  0  0  0  0  0  0  0  0  0  0  0
   15.2740  -16.2760    7.9120 O   0  0  0  0  0  0  0  0  0  0  0  0
   14.7850  -16.2000    5.4720 O   0  0  0  0  0  0  0  0  0  0  0  0
  1  2  1  0  0  0  0
  1  6  1  0  0  0  0
  1  8  1  1  0  0  0
  2  3  1  6  0  0  0
  2  4  1  0  0  0  0
  4  7  1  6  0  0  0
  4  5  1  0  0  0  0
  5  6  1  0  0  0  0
  5 16  1  1  0  0  0
  8  9  1  0  0  0  0
  8 13  1  0  0  0  0
  9 14  2  0  0  0  0
  9 10  1  0  0  0  0
 10 11  1  0  0  0  0
 11 12  1  0  0  0  0
 11 15  2  0  0  0  0
 12 13  1  0  0  0  0
 16 17  1  0  0  0  0
 17 18  1  0  0  0  0
 18 19  2  6  0  0  0
 18 21  1  0  0  0  0
 18 20  1  0  0  0  0
 21 22  1  0  0  0  0
 22 23  2  0  0  0  0
 22 25  1  0  0  0  0
 22 24  1  0  0  0  0
M  END
>  <COMPND>
    UNNAMED

>  <AUTHOR>
    GENERATED BY OPEN BABEL 2.4.90

>  <MASTER>
        0    0    0    0    0    0    0    0   25    0   25    0

