__2rj4_A_rec_3zgf_udp_lig_min.pdb
 OpenBabel10171923103D

 25 26  0  0  1  0  0  0  0  0999 V2000
   10.5230  -23.2670    6.0540 C   0  0  1  0  0  0  0  0  0  0  0  0
    9.6370  -22.3370    5.2500 C   0  0  2  0  0  0  0  0  0  0  0  0
    9.5420  -22.8170    3.9210 O   0  0  0  0  0  0  0  0  0  0  0  0
   10.4420  -21.0540    5.2660 C   0  0  1  0  0  0  0  0  0  0  0  0
   11.8620  -21.5800    5.1840 C   0  0  2  0  0  0  0  0  0  0  0  0
   11.8420  -22.7390    5.9940 O   0  0  0  0  0  0  0  0  0  0  0  0
   10.1090  -20.2400    4.1780 O   0  0  0  0  0  0  0  0  0  0  0  0
   10.0620  -23.3250    7.4600 N   0  0  0  0  0  0  0  0  0  0  0  0
    8.9120  -24.0390    7.7640 C   0  0  0  0  0  0  0  0  0  0  0  0
    8.4650  -24.1250    9.0650 N   0  0  0  0  0  0  0  0  0  0  0  0
    9.1670  -23.4970   10.0790 C   0  0  0  0  0  0  0  0  0  0  0  0
   10.3270  -22.7760    9.7800 C   0  0  0  0  0  0  0  0  0  0  0  0
   10.7450  -22.6660    8.4530 C   0  0  0  0  0  0  0  0  0  0  0  0
    8.2870  -24.6030    6.8680 O   0  0  0  0  0  0  0  0  0  0  0  0
    8.7570  -23.5790   11.2380 O   0  0  0  0  0  0  0  0  0  0  0  0
   12.8820  -20.5630    5.6850 C   0  0  0  0  0  0  0  0  0  0  0  0
   12.2920  -19.8590    6.7550 O   0  0  0  0  0  0  0  0  0  0  0  0
   12.1170  -18.2640    6.7270 P   0  0  1  0  0  0  0  0  0  0  0  0
   11.6220  -17.7740    5.4200 O   0  0  0  0  0  0  0  0  0  0  0  0
   11.2290  -17.8130    7.8260 O   0  0  0  0  0  0  0  0  0  0  0  0
   13.6280  -17.7390    6.9820 O   0  0  0  0  0  0  0  0  0  0  0  0
   14.5730  -16.9370    5.9450 P   0  0  0  0  0  0  0  0  0  0  0  0
   15.0470  -17.8770    4.8990 O   0  0  0  0  0  0  0  0  0  0  0  0
   15.7350  -16.4290    6.7150 O   0  0  0  0  0  0  0  0  0  0  0  0
   13.9050  -15.7710    5.3220 O   0  0  0  0  0  0  0  0  0  0  0  0
  1  2  1  0  0  0  0
  1  6  1  0  0  0  0
  1  8  1  1  0  0  0
  2  3  1  6  0  0  0
  2  4  1  0  0  0  0
  4  7  1  6  0  0  0
  4  5  1  0  0  0  0
  5 16  1  1  0  0  0
  5  6  1  0  0  0  0
  8  9  1  0  0  0  0
  8 13  1  0  0  0  0
  9 14  2  0  0  0  0
  9 10  1  0  0  0  0
 10 11  1  0  0  0  0
 11 12  1  0  0  0  0
 11 15  2  0  0  0  0
 12 13  2  0  0  0  0
 16 17  1  0  0  0  0
 17 18  1  0  0  0  0
 18 19  2  6  0  0  0
 18 21  1  0  0  0  0
 18 20  1  0  0  0  0
 21 22  1  0  0  0  0
 22 23  2  0  0  0  0
 22 25  1  0  0  0  0
 22 24  1  0  0  0  0
M  END
>  <COMPND>
    UNNAMED

>  <AUTHOR>
    GENERATED BY OPEN BABEL 2.4.90

>  <MASTER>
        0    0    0    0    0    0    0    0   25    0   25    0

