__2rj4_A_rec_5c1l_gdu_lig_docked.pdb
 OpenBabel10181922023D

 36 38  0  0  1  0  0  0  0  0999 V2000
   12.5390  -18.1430    6.7960 P   0  0  1  0  0  0  0  0  0  0  0  0
   11.2500  -18.0300    7.5590 O   0  0  0  0  0  0  0  0  0  0  0  0
   13.7470  -18.5820    7.5670 O   0  0  0  0  0  0  0  0  0  0  0  0
   12.3880  -19.1780    5.5890 O   0  0  0  0  0  0  0  0  0  0  0  0
   12.8900  -20.5050    5.6820 C   0  0  0  0  0  0  0  0  0  0  0  0
   10.6500  -23.2540    6.1710 C   0  0  1  0  0  0  0  0  0  0  0  0
    9.7270  -22.4370    5.2920 C   0  0  2  0  0  0  0  0  0  0  0  0
    9.6620  -22.9600    3.9580 O   0  0  0  0  0  0  0  0  0  0  0  0
   10.3930  -21.0890    5.2770 C   0  0  1  0  0  0  0  0  0  0  0  0
   11.8530  -21.5110    5.1910 C   0  0  2  0  0  0  0  0  0  0  0  0
   11.9460  -22.6600    6.0200 O   0  0  0  0  0  0  0  0  0  0  0  0
    9.9320  -20.3020    4.1810 O   0  0  0  0  0  0  0  0  0  0  0  0
   10.2430  -23.2300    7.5800 N   0  0  0  0  0  0  0  0  0  0  0  0
    9.0810  -23.9340    7.9170 C   0  0  0  0  0  0  0  0  0  0  0  0
    8.6680  -23.9460    9.1980 N   0  0  0  0  0  0  0  0  0  0  0  0
    9.3580  -23.3390   10.1840 C   0  0  0  0  0  0  0  0  0  0  0  0
   10.5140  -22.6420    9.8830 C   0  0  0  0  0  0  0  0  0  0  0  0
   10.9380  -22.6090    8.5630 C   0  0  0  0  0  0  0  0  0  0  0  0
    8.4470  -24.5020    7.0100 O   0  0  0  0  0  0  0  0  0  0  0  0
    8.9440  -23.3800   11.3770 O   0  0  0  0  0  0  0  0  0  0  0  0
   12.9520  -16.7560    6.0940 O   0  0  0  0  0  0  0  0  0  0  0  0
   13.9060  -15.5140    6.5390 P   0  0  1  0  0  0  0  0  0  0  0  0
   13.9990  -14.4630    5.4410 O   0  0  0  0  0  0  0  0  0  0  0  0
   13.4260  -15.0250    7.8780 O   0  0  0  0  0  0  0  0  0  0  0  0
   15.1700  -16.4740    6.6740 O   0  0  0  0  0  0  0  0  0  0  0  0
   16.2470  -16.4410    5.6660 C   0  0  2  0  0  0  0  0  0  0  0  0
   15.9490  -17.1430    4.3400 C   0  0  1  0  0  0  0  0  0  0  0  0
   15.9520  -18.6680    4.4550 C   0  0  2  0  0  0  0  0  0  0  0  0
   17.2620  -19.1490    5.0580 C   0  0  2  0  0  0  0  0  0  0  0  0
   17.5440  -18.3870    6.3450 C   0  0  2  0  0  0  0  0  0  0  0  0
   14.6840  -16.6730    3.8330 O   0  0  0  0  0  0  0  0  0  0  0  0
   15.7880  -19.3160    3.1770 O   0  0  0  0  0  0  0  0  0  0  0  0
   18.3510  -18.9400    4.1620 O   0  0  0  0  0  0  0  0  0  0  0  0
   17.5240  -16.9670    6.1110 O   0  0  0  0  0  0  0  0  0  0  0  0
   18.8960  -18.8030    6.9050 C   0  0  0  0  0  0  0  0  0  0  0  0
   19.1570  -20.1380    6.4560 O   0  0  0  0  0  0  0  0  0  0  0  0
  1  2  2  1  0  0  0
  1  4  1  0  0  0  0
  1 21  1  0  0  0  0
  1  3  1  0  0  0  0
  4  5  1  0  0  0  0
  6  7  1  0  0  0  0
  6 11  1  0  0  0  0
  6 13  1  1  0  0  0
  7  8  1  6  0  0  0
  7  9  1  0  0  0  0
  9 12  1  6  0  0  0
  9 10  1  0  0  0  0
 10  5  1  1  0  0  0
 10 11  1  0  0  0  0
 13 14  1  0  0  0  0
 13 18  1  0  0  0  0
 14 19  2  0  0  0  0
 14 15  1  0  0  0  0
 15 16  1  0  0  0  0
 16 17  1  0  0  0  0
 16 20  2  0  0  0  0
 17 18  2  0  0  0  0
 21 22  1  0  0  0  0
 22 23  2  6  0  0  0
 22 25  1  0  0  0  0
 22 24  1  0  0  0  0
 26 25  1  1  0  0  0
 26 27  1  0  0  0  0
 26 34  1  0  0  0  0
 27 31  1  1  0  0  0
 27 28  1  0  0  0  0
 28 32  1  6  0  0  0
 28 29  1  0  0  0  0
 29 33  1  6  0  0  0
 29 30  1  0  0  0  0
 30 34  1  0  0  0  0
 30 35  1  6  0  0  0
 35 36  1  0  0  0  0
M  END
>  <MODEL>
       2

>  <COMPND>
    UNNAMED

>  <AUTHOR>
    GENERATED BY OPEN BABEL 2.4.90

>  <MASTER>
        0    0    0    0    0    0    0    0   36    0   36    0

