__2rj5_A_rec_1zj1_nlc_lig_min.pdb
 OpenBabel10181909593D

 26 27  0  0  1  0  0  0  0  0999 V2000
   17.2400   -6.3480    7.1740 C   0  0  2  0  0  0  0  0  0  0  0  0
   15.9860   -6.0030    6.5780 O   0  0  0  0  0  0  0  0  0  0  0  0
   18.1620   -6.9630    6.1170 C   0  0  1  0  0  0  0  0  0  0  0  0
   17.5850   -8.2940    5.6280 C   0  0  1  0  0  0  0  0  0  0  0  0
   18.5210   -8.9240    4.7500 O   0  0  0  0  0  0  0  0  0  0  0  0
   17.3010   -9.2230    6.8110 C   0  0  1  0  0  0  0  0  0  0  0  0
   16.4090   -8.5010    7.8120 C   0  0  2  0  0  0  0  0  0  0  0  0
   17.0340   -7.2800    8.2490 O   0  0  0  0  0  0  0  0  0  0  0  0
   18.2760   -6.0380    4.9810 N   0  0  0  0  0  0  0  0  0  0  0  0
   19.2270   -5.1100    4.9090 C   0  0  0  0  0  0  0  0  0  0  0  0
   19.1770   -4.2340    3.6550 C   0  0  0  0  0  0  0  0  0  0  0  0
   20.0910   -4.9380    5.7670 O   0  0  0  0  0  0  0  0  0  0  0  0
   16.1380   -9.3910    9.0270 C   0  0  0  0  0  0  0  0  0  0  0  0
   17.3430   -9.5750    9.7740 O   0  0  0  0  0  0  0  0  0  0  0  0
   16.6730  -10.4250    6.3430 O   0  0  0  0  0  0  0  0  0  0  0  0
   16.5670  -12.8280    6.5420 C   0  0  2  0  0  0  0  0  0  0  0  0
   15.3130  -12.7600    7.2260 O   0  0  0  0  0  0  0  0  0  0  0  0
   17.3430  -14.0680    6.9920 C   0  0  1  0  0  0  0  0  0  0  0  0
   16.6210  -15.2390    6.6050 O   0  0  0  0  0  0  0  0  0  0  0  0
   18.7270  -14.0790    6.3380 C   0  0  2  0  0  0  0  0  0  0  0  0
   19.4450  -12.7640    6.6500 C   0  0  2  0  0  0  0  0  0  0  0  0
   17.3890  -11.5690    6.8310 C   0  0  1  0  0  0  0  0  0  0  0  0
   18.6620  -11.6590    6.1680 O   0  0  0  0  0  0  0  0  0  0  0  0
   18.5700  -14.2130    4.9230 O   0  0  0  0  0  0  0  0  0  0  0  0
   20.8260  -12.7450    5.9890 C   0  0  0  0  0  0  0  0  0  0  0  0
   21.6550  -11.7800    6.6400 O   0  0  0  0  0  0  0  0  0  0  0  0
  1  3  1  0  0  0  0
  1  2  1  6  0  0  0
  1  8  1  0  0  0  0
  3  9  1  6  0  0  0
  3  4  1  0  0  0  0
  4  5  1  6  0  0  0
  4  6  1  0  0  0  0
  6 15  1  6  0  0  0
  6  7  1  0  0  0  0
  7  8  1  0  0  0  0
  7 13  1  1  0  0  0
  9 10  1  0  0  0  0
 10 11  1  0  0  0  0
 10 12  2  0  0  0  0
 13 14  1  0  0  0  0
 16 22  1  0  0  0  0
 16 18  1  0  0  0  0
 16 17  1  1  0  0  0
 18 20  1  0  0  0  0
 18 19  1  6  0  0  0
 20 24  1  6  0  0  0
 20 21  1  0  0  0  0
 21 25  1  6  0  0  0
 21 23  1  0  0  0  0
 22 15  1  6  0  0  0
 22 23  1  0  0  0  0
 25 26  1  0  0  0  0
M  END
>  <COMPND>
    UNNAMED

>  <AUTHOR>
    GENERATED BY OPEN BABEL 2.4.90

>  <MASTER>
        0    0    0    0    0    0    0    0   26    0   26    0

