__2rj6_A_rec_4y63_bhe_lig_min.pdb
 OpenBabel10181913243D

 30 31  0  0  1  0  0  0  0  0999 V2000
   17.5170  -10.8190    5.9710 C   0  0  2  0  0  0  0  0  0  0  0  0
   18.8730  -11.0900    5.5660 O   0  0  0  0  0  0  0  0  0  0  0  0
   19.4590  -12.1490    6.3400 C   0  0  1  0  0  0  0  0  0  0  0  0
   18.6810  -13.4460    6.1110 C   0  0  2  0  0  0  0  0  0  0  0  0
   18.7150  -13.8090    4.7160 O   0  0  0  0  0  0  0  0  0  0  0  0
   17.2410  -13.2200    6.5280 C   0  0  2  0  0  0  0  0  0  0  0  0
   16.4630  -14.3840    6.2570 O   0  0  0  0  0  0  0  0  0  0  0  0
   16.6750  -12.0630    5.7320 C   0  0  1  0  0  0  0  0  0  0  0  0
   21.6460  -11.3120    6.5860 O   0  0  0  0  0  0  0  0  0  0  0  0
   20.8920  -12.3290    5.9050 C   0  0  0  0  0  0  0  0  0  0  0  0
   17.0370   -9.7240    5.1870 O   0  0  0  0  0  0  0  0  0  0  0  0
   17.9740   -8.6130    5.0920 C   0  0  0  0  0  0  0  0  0  0  0  0
   17.3800   -7.7090    4.0570 C   0  0  0  0  0  0  0  0  0  0  0  0
   17.7690   -6.2320    4.2890 C   0  0  0  0  0  0  0  0  0  0  0  0
   19.2880   -6.0850    4.4100 C   0  0  0  0  0  0  0  0  0  0  0  0
   19.6210   -5.4320    5.7670 C   0  0  0  0  0  0  0  0  0  0  0  0
   20.9880   -4.7130    5.7360 C   0  0  0  0  0  0  0  0  0  0  0  0
   21.1560   -4.0160    4.3920 C   0  0  0  0  0  0  0  0  0  0  0  0
   22.6020   -3.6170    4.3140 C   0  0  0  0  0  0  0  0  0  0  0  0
   15.3450  -11.8390    6.1940 O   0  0  0  0  0  0  0  0  0  0  0  0
   14.3890  -12.2000    5.2070 C   0  0  1  0  0  0  0  0  0  0  0  0
   13.0010  -12.3260    5.8720 C   0  0  1  0  0  0  0  0  0  0  0  0
   13.0640  -13.1620    7.0450 O   0  0  0  0  0  0  0  0  0  0  0  0
   12.5050  -10.9370    6.2500 C   0  0  2  0  0  0  0  0  0  0  0  0
   11.1920  -11.0210    6.8190 O   0  0  0  0  0  0  0  0  0  0  0  0
   12.4630  -10.0270    5.0040 C   0  0  2  0  0  0  0  0  0  0  0  0
   11.4600  -10.4820    4.1050 O   0  0  0  0  0  0  0  0  0  0  0  0
   13.8280  -10.0230    4.3060 C   0  0  1  0  0  0  0  0  0  0  0  0
   14.2190  -11.4210    4.0110 O   0  0  0  0  0  0  0  0  0  0  0  0
   13.8220   -9.2480    2.9930 C   0  0  0  0  0  0  0  0  0  0  0  0
  1 11  1  6  0  0  0
  1  2  1  0  0  0  0
  1  8  1  0  0  0  0
  2  3  1  0  0  0  0
  3 10  1  6  0  0  0
  3  4  1  0  0  0  0
  4  5  1  6  0  0  0
  4  6  1  0  0  0  0
  6  8  1  0  0  0  0
  6  7  1  6  0  0  0
  8 20  1  1  0  0  0
  9 10  1  0  0  0  0
 11 12  1  0  0  0  0
 12 13  1  0  0  0  0
 13 14  1  0  0  0  0
 14 15  1  0  0  0  0
 15 16  1  0  0  0  0
 16 17  1  0  0  0  0
 17 18  1  0  0  0  0
 18 19  1  0  0  0  0
 21 20  1  1  0  0  0
 21 29  1  0  0  0  0
 21 22  1  0  0  0  0
 22 24  1  0  0  0  0
 22 23  1  1  0  0  0
 24 26  1  0  0  0  0
 24 25  1  6  0  0  0
 26 27  1  6  0  0  0
 26 28  1  0  0  0  0
 28 30  1  6  0  0  0
 28 29  1  0  0  0  0
M  END
>  <COMPND>
    UNNAMED

>  <AUTHOR>
    GENERATED BY OPEN BABEL 2.4.90

>  <MASTER>
        0    0    0    0    0    0    0    0   30    0   30    0

