__2rj6_A_rec_3v0o_bhe_lig_min.pdb
 OpenBabel10181909523D

 30 31  0  0  1  0  0  0  0  0999 V2000
   17.3400  -10.8910    5.8320 C   0  0  2  0  0  0  0  0  0  0  0  0
   18.7120  -11.1240    5.4920 O   0  0  0  0  0  0  0  0  0  0  0  0
   19.2920  -12.1240    6.3410 C   0  0  1  0  0  0  0  0  0  0  0  0
   18.5440  -13.4540    6.1920 C   0  0  2  0  0  0  0  0  0  0  0  0
   18.6580  -13.9120    4.8470 O   0  0  0  0  0  0  0  0  0  0  0  0
   17.1030  -13.1900    6.5860 C   0  0  2  0  0  0  0  0  0  0  0  0
   16.3960  -14.4240    6.3750 O   0  0  0  0  0  0  0  0  0  0  0  0
   16.5240  -12.1440    5.6730 C   0  0  1  0  0  0  0  0  0  0  0  0
   21.4750  -11.2250    6.6700 O   0  0  0  0  0  0  0  0  0  0  0  0
   20.7600  -12.2870    5.9840 C   0  0  0  0  0  0  0  0  0  0  0  0
   16.7890   -9.8980    4.9600 O   0  0  0  0  0  0  0  0  0  0  0  0
   16.9540   -8.5270    5.4110 C   0  0  0  0  0  0  0  0  0  0  0  0
   17.2970   -7.7880    4.1330 C   0  0  0  0  0  0  0  0  0  0  0  0
   17.7690   -6.3190    4.2340 C   0  0  0  0  0  0  0  0  0  0  0  0
   19.2500   -6.0790    4.4770 C   0  0  0  0  0  0  0  0  0  0  0  0
   19.6090   -5.9220    5.9430 C   0  0  0  0  0  0  0  0  0  0  0  0
   20.7690   -4.9300    5.9950 C   0  0  0  0  0  0  0  0  0  0  0  0
   20.9860   -4.3610    4.5880 C   0  0  0  0  0  0  0  0  0  0  0  0
   21.0000   -2.8270    4.6120 C   0  0  0  0  0  0  0  0  0  0  0  0
   15.1220  -11.8630    6.0470 O   0  0  0  0  0  0  0  0  0  0  0  0
   14.1700  -12.4360    5.2350 C   0  0  1  0  0  0  0  0  0  0  0  0
   12.8530  -12.4290    5.9740 C   0  0  1  0  0  0  0  0  0  0  0  0
   12.9810  -13.1870    7.1960 O   0  0  0  0  0  0  0  0  0  0  0  0
   12.4230  -11.0270    6.3350 C   0  0  2  0  0  0  0  0  0  0  0  0
   11.1270  -11.1320    6.9570 O   0  0  0  0  0  0  0  0  0  0  0  0
   12.2890  -10.2050    5.0690 C   0  0  2  0  0  0  0  0  0  0  0  0
   11.2110  -10.7390    4.2070 O   0  0  0  0  0  0  0  0  0  0  0  0
   13.6640  -10.2020    4.4070 C   0  0  1  0  0  0  0  0  0  0  0  0
   14.0710  -11.5890    4.0960 O   0  0  0  0  0  0  0  0  0  0  0  0
   13.6740   -9.3310    3.1500 C   0  0  0  0  0  0  0  0  0  0  0  0
  1 11  1  6  0  0  0
  1  2  1  0  0  0  0
  1  8  1  0  0  0  0
  2  3  1  0  0  0  0
  3 10  1  6  0  0  0
  3  4  1  0  0  0  0
  4  5  1  6  0  0  0
  4  6  1  0  0  0  0
  6  8  1  0  0  0  0
  6  7  1  6  0  0  0
  8 20  1  1  0  0  0
  9 10  1  0  0  0  0
 11 12  1  0  0  0  0
 12 13  1  0  0  0  0
 13 14  1  0  0  0  0
 14 15  1  0  0  0  0
 15 16  1  0  0  0  0
 16 17  1  0  0  0  0
 17 18  1  0  0  0  0
 18 19  1  0  0  0  0
 21 20  1  1  0  0  0
 21 29  1  0  0  0  0
 21 22  1  0  0  0  0
 22 24  1  0  0  0  0
 22 23  1  1  0  0  0
 24 26  1  0  0  0  0
 24 25  1  6  0  0  0
 26 27  1  6  0  0  0
 26 28  1  0  0  0  0
 28 30  1  6  0  0  0
 28 29  1  0  0  0  0
M  END
>  <COMPND>
    UNNAMED

>  <AUTHOR>
    GENERATED BY OPEN BABEL 2.4.90

>  <MASTER>
        0    0    0    0    0    0    0    0   30    0   30    0

