__2rj6_A_rec_3v0q_bhe_lig_min.pdb
 OpenBabel10171922403D

 30 31  0  0  1  0  0  0  0  0999 V2000
   17.5290  -10.8480    5.9230 C   0  0  2  0  0  0  0  0  0  0  0  0
   18.8530  -11.1480    5.5660 O   0  0  0  0  0  0  0  0  0  0  0  0
   19.3830  -12.2300    6.3390 C   0  0  1  0  0  0  0  0  0  0  0  0
   18.5440  -13.4920    6.1100 C   0  0  2  0  0  0  0  0  0  0  0  0
   18.5890  -13.7950    4.7370 O   0  0  0  0  0  0  0  0  0  0  0  0
   17.1270  -13.1790    6.5450 C   0  0  2  0  0  0  0  0  0  0  0  0
   16.3130  -14.3550    6.2670 O   0  0  0  0  0  0  0  0  0  0  0  0
   16.6140  -12.0330    5.7110 C   0  0  1  0  0  0  0  0  0  0  0  0
   21.6140  -11.3490    6.5650 O   0  0  0  0  0  0  0  0  0  0  0  0
   20.8510  -12.3940    5.9270 C   0  0  0  0  0  0  0  0  0  0  0  0
   17.0570   -9.7520    5.1080 O   0  0  0  0  0  0  0  0  0  0  0  0
   17.9550   -8.6260    5.1080 C   0  0  0  0  0  0  0  0  0  0  0  0
   17.4400   -7.6040    4.0850 C   0  0  0  0  0  0  0  0  0  0  0  0
   17.9200   -6.1660    4.3850 C   0  0  0  0  0  0  0  0  0  0  0  0
   19.4360   -5.9140    4.3270 C   0  0  0  0  0  0  0  0  0  0  0  0
   19.8290   -5.4570    5.7470 C   0  0  0  0  0  0  0  0  0  0  0  0
   21.0960   -4.5910    5.8330 C   0  0  0  0  0  0  0  0  0  0  0  0
   21.4760   -3.9640    4.4950 C   0  0  0  0  0  0  0  0  0  0  0  0
   22.9580   -3.5730    4.5420 C   0  0  0  0  0  0  0  0  0  0  0  0
   15.2730  -11.6960    6.0970 O   0  0  0  0  0  0  0  0  0  0  0  0
   14.1840  -12.2640    5.4210 C   0  0  1  0  0  0  0  0  0  0  0  0
   12.9120  -12.0380    6.2340 C   0  0  1  0  0  0  0  0  0  0  0  0
   13.0020  -12.6450    7.5440 O   0  0  0  0  0  0  0  0  0  0  0  0
   12.6690  -10.5740    6.4650 C   0  0  2  0  0  0  0  0  0  0  0  0
   11.3860  -10.4690    7.1170 O   0  0  0  0  0  0  0  0  0  0  0  0
   12.5700   -9.8490    5.1550 C   0  0  2  0  0  0  0  0  0  0  0  0
   11.4620  -10.3250    4.3850 O   0  0  0  0  0  0  0  0  0  0  0  0
   13.8960  -10.0580    4.4100 C   0  0  1  0  0  0  0  0  0  0  0  0
   14.1140  -11.4890    4.1910 O   0  0  0  0  0  0  0  0  0  0  0  0
   13.8710   -9.3190    3.0670 C   0  0  0  0  0  0  0  0  0  0  0  0
  1 11  1  6  0  0  0
  1  2  1  0  0  0  0
  1  8  1  0  0  0  0
  2  3  1  0  0  0  0
  3 10  1  6  0  0  0
  3  4  1  0  0  0  0
  4  5  1  6  0  0  0
  4  6  1  0  0  0  0
  6  8  1  0  0  0  0
  6  7  1  6  0  0  0
  8 20  1  1  0  0  0
  9 10  1  0  0  0  0
 11 12  1  0  0  0  0
 12 13  1  0  0  0  0
 13 14  1  0  0  0  0
 14 15  1  0  0  0  0
 15 16  1  0  0  0  0
 16 17  1  0  0  0  0
 17 18  1  0  0  0  0
 18 19  1  0  0  0  0
 21 20  1  1  0  0  0
 21 29  1  0  0  0  0
 21 22  1  0  0  0  0
 22 24  1  0  0  0  0
 22 23  1  1  0  0  0
 24 26  1  0  0  0  0
 24 25  1  6  0  0  0
 26 27  1  6  0  0  0
 26 28  1  0  0  0  0
 28 30  1  6  0  0  0
 28 29  1  0  0  0  0
M  END
>  <COMPND>
    UNNAMED

>  <AUTHOR>
    GENERATED BY OPEN BABEL 2.4.90

>  <MASTER>
        0    0    0    0    0    0    0    0   30    0   30    0

