__2rj6_A_rec_5bxc_da8_lig_min.pdb
 OpenBabel10181900333D

 27 28  0  0  1  0  0  0  0  0999 V2000
   17.4580  -10.7730    5.9730 C   0  0  2  0  0  0  0  0  0  0  0  0
   18.7950  -11.1040    5.5330 O   0  0  0  0  0  0  0  0  0  0  0  0
   19.3840  -12.1010    6.3700 C   0  0  1  0  0  0  0  0  0  0  0  0
   18.6030  -13.4350    6.1700 C   0  0  2  0  0  0  0  0  0  0  0  0
   18.5950  -13.8780    4.7740 O   0  0  0  0  0  0  0  0  0  0  0  0
   17.0980  -13.1870    6.5940 C   0  0  0  0  0  0  0  0  0  0  0  0
   16.5300  -11.9860    5.7880 C   0  0  1  0  0  0  0  0  0  0  0  0
   20.8100  -12.2570    5.9000 C   0  0  0  0  0  0  0  0  0  0  0  0
   21.6180  -11.2960    6.6000 O   0  0  0  0  0  0  0  0  0  0  0  0
   16.9750   -9.7490    5.1710 O   0  0  0  0  0  0  0  0  0  0  0  0
   17.9220   -8.6380    5.0960 C   0  0  0  0  0  0  0  0  0  0  0  0
   17.4900   -7.6980    3.9800 C   0  0  0  0  0  0  0  0  0  0  0  0
   17.8390   -6.2390    4.3010 C   0  0  0  0  0  0  0  0  0  0  0  0
   19.3300   -6.0200    4.5210 C   0  0  0  0  0  0  0  0  0  0  0  0
   21.1770   -4.2840    4.6610 C   0  0  0  0  0  0  0  0  0  0  0  0
   19.7120   -4.5390    4.2830 C   0  0  0  0  0  0  0  0  0  0  0  0
   15.1950  -11.6670    6.2250 O   0  0  0  0  0  0  0  0  0  0  0  0
   14.2030  -12.2300    5.4100 C   0  0  2  0  0  0  0  0  0  0  0  0
   14.1050  -11.4880    4.1900 O   0  0  0  0  0  0  0  0  0  0  0  0
   13.7920  -10.0570    4.3610 C   0  0  1  0  0  0  0  0  0  0  0  0
   13.8010   -9.3620    2.9940 C   0  0  0  0  0  0  0  0  0  0  0  0
   12.4790   -9.9370    5.1220 C   0  0  1  0  0  0  0  0  0  0  0  0
   11.3760  -10.4050    4.3140 O   0  0  0  0  0  0  0  0  0  0  0  0
   12.5140  -10.7230    6.4320 C   0  0  1  0  0  0  0  0  0  0  0  0
   11.2590  -10.6540    7.1430 O   0  0  0  0  0  0  0  0  0  0  0  0
   12.8790  -12.1770    6.1860 C   0  0  2  0  0  0  0  0  0  0  0  0
   13.0300  -12.8420    7.4360 O   0  0  0  0  0  0  0  0  0  0  0  0
  1 10  1  6  0  0  0
  1  2  1  0  0  0  0
  1  7  1  0  0  0  0
  2  3  1  0  0  0  0
  3  8  1  6  0  0  0
  3  4  1  0  0  0  0
  4  5  1  6  0  0  0
  4  6  1  0  0  0  0
  6  7  1  0  0  0  0
  7 17  1  1  0  0  0
  8  9  1  0  0  0  0
 10 11  1  0  0  0  0
 11 12  1  0  0  0  0
 12 13  1  0  0  0  0
 13 14  1  0  0  0  0
 14 16  1  0  0  0  0
 15 16  1  0  0  0  0
 18 17  1  1  0  0  0
 18 19  1  0  0  0  0
 18 26  1  0  0  0  0
 19 20  1  0  0  0  0
 20 21  1  6  0  0  0
 20 22  1  0  0  0  0
 22 23  1  6  0  0  0
 22 24  1  0  0  0  0
 24 26  1  0  0  0  0
 24 25  1  6  0  0  0
 26 27  1  1  0  0  0
M  END
>  <COMPND>
    UNNAMED

>  <AUTHOR>
    GENERATED BY OPEN BABEL 2.4.90

>  <MASTER>
        0    0    0    0    0    0    0    0   27    0   27    0

