__2rj7_A_rec_5c3a_urm_lig_min.pdb
 OpenBabel10181909193D

 36 38  0  0  1  0  0  0  0  0999 V2000
   12.1010  -18.4890    6.9180 P   0  0  1  0  0  0  0  0  0  0  0  0
   11.2210  -18.1480    5.7390 O   0  0  0  0  0  0  0  0  0  0  0  0
   11.5770  -18.2740    8.3320 O   0  0  0  0  0  0  0  0  0  0  0  0
   12.5970  -19.9890    6.8120 O   0  0  0  0  0  0  0  0  0  0  0  0
   12.9570  -20.5130    5.5320 C   0  0  0  0  0  0  0  0  0  0  0  0
   10.8030  -23.2970    6.0850 C   0  0  1  0  0  0  0  0  0  0  0  0
    9.8440  -22.5210    5.1830 C   0  0  1  0  0  0  0  0  0  0  0  0
   10.4860  -21.1710    5.1480 C   0  0  1  0  0  0  0  0  0  0  0  0
   11.9560  -21.5550    5.0860 C   0  0  2  0  0  0  0  0  0  0  0  0
   12.0890  -22.6750    5.9550 O   0  0  0  0  0  0  0  0  0  0  0  0
   10.0390  -20.3720    4.0400 O   0  0  0  0  0  0  0  0  0  0  0  0
    9.8060  -23.0970    3.8670 O   0  0  0  0  0  0  0  0  0  0  0  0
   10.3750  -23.2240    7.4930 N   0  0  0  0  0  0  0  0  0  0  0  0
    8.7560  -23.8680    9.1070 N   0  0  0  0  0  0  0  0  0  0  0  0
   10.5960  -22.5260    9.7700 C   0  0  0  0  0  0  0  0  0  0  0  0
   11.0680  -22.5520    8.4540 C   0  0  0  0  0  0  0  0  0  0  0  0
    9.1900  -23.8970    7.8300 C   0  0  0  0  0  0  0  0  0  0  0  0
    8.5550  -24.5090    6.9410 O   0  0  0  0  0  0  0  0  0  0  0  0
    9.4310  -23.2220   10.0720 C   0  0  0  0  0  0  0  0  0  0  0  0
    8.9810  -23.2270   11.2580 O   0  0  0  0  0  0  0  0  0  0  0  0
   13.5300  -17.7220    6.8420 O   0  0  0  0  0  0  0  0  0  0  0  0
   13.8370  -16.3170    6.1540 P   0  0  2  0  0  0  0  0  0  0  0  0
   13.1300  -15.2050    7.0810 O   0  0  0  0  0  0  0  0  0  0  0  0
   13.4120  -16.2620    4.7230 O   0  0  0  0  0  0  0  0  0  0  0  0
   15.6150  -16.0860    6.2630 C   0  0  0  0  0  0  0  0  0  0  0  0
   15.3820  -13.7000    5.5760 O   0  0  0  0  0  0  0  0  0  0  0  0
   15.8980  -13.0820    6.7580 C   0  0  1  0  0  0  0  0  0  0  0  0
   17.3310  -12.6890    6.4760 C   0  0  1  0  0  0  0  0  0  0  0  0
   18.1410  -13.9470    6.2210 C   0  0  1  0  0  0  0  0  0  0  0  0
   17.4860  -14.8090    5.1470 C   0  0  2  0  0  0  0  0  0  0  0  0
   15.9750  -14.9810    5.2680 C   0  0  1  0  0  0  0  0  0  0  0  0
   17.3250  -11.8960    5.2930 O   0  0  0  0  0  0  0  0  0  0  0  0
   19.4120  -13.5960    5.6970 O   0  0  0  0  0  0  0  0  0  0  0  0
   18.0860  -16.0990    5.2020 O   0  0  0  0  0  0  0  0  0  0  0  0
   15.0350  -11.8810    7.1020 C   0  0  0  0  0  0  0  0  0  0  0  0
   13.7880  -12.3640    7.6070 O   0  0  0  0  0  0  0  0  0  0  0  0
  1  2  2  6  0  0  0
  1  4  1  0  0  0  0
  1 21  1  0  0  0  0
  1  3  1  0  0  0  0
  4  5  1  0  0  0  0
  6  7  1  0  0  0  0
  6 10  1  0  0  0  0
  6 13  1  1  0  0  0
  7 12  1  6  0  0  0
  7  8  1  0  0  0  0
  8 11  1  6  0  0  0
  8  9  1  0  0  0  0
  9  5  1  1  0  0  0
  9 10  1  0  0  0  0
 13 17  1  0  0  0  0
 13 16  1  0  0  0  0
 14 17  1  0  0  0  0
 14 19  1  0  0  0  0
 15 16  2  0  0  0  0
 15 19  1  0  0  0  0
 17 18  2  0  0  0  0
 19 20  2  0  0  0  0
 21 22  1  0  0  0  0
 22 24  2  6  0  0  0
 22 25  1  0  0  0  0
 22 23  1  0  0  0  0
 26 31  1  0  0  0  0
 26 27  1  0  0  0  0
 27 28  1  0  0  0  0
 27 35  1  6  0  0  0
 28 32  1  6  0  0  0
 28 29  1  0  0  0  0
 29 30  1  0  0  0  0
 29 33  1  6  0  0  0
 30 34  1  1  0  0  0
 30 31  1  0  0  0  0
 31 25  1  1  0  0  0
 35 36  1  0  0  0  0
M  END
>  <COMPND>
    UNNAMED

>  <AUTHOR>
    GENERATED BY OPEN BABEL 2.4.90

>  <MASTER>
        0    0    0    0    0    0    0    0   36    0   36    0

