__2rj7_A_rec_5bxc_da8_lig_min.pdb
 OpenBabel10171922403D

 27 28  0  0  1  0  0  0  0  0999 V2000
   17.5800  -10.9600    6.1700 C   0  0  2  0  0  0  0  0  0  0  0  0
   18.9690  -11.1650    5.8220 O   0  0  0  0  0  0  0  0  0  0  0  0
   19.5590  -12.1890    6.6250 C   0  0  1  0  0  0  0  0  0  0  0  0
   18.8940  -13.5490    6.2520 C   0  0  2  0  0  0  0  0  0  0  0  0
   19.0310  -13.8710    4.8300 O   0  0  0  0  0  0  0  0  0  0  0  0
   17.3460  -13.4370    6.5640 C   0  0  0  0  0  0  0  0  0  0  0  0
   16.7590  -12.2110    5.8090 C   0  0  1  0  0  0  0  0  0  0  0  0
   21.0260  -12.2120    6.2690 C   0  0  0  0  0  0  0  0  0  0  0  0
   21.6850  -11.1850    7.0300 O   0  0  0  0  0  0  0  0  0  0  0  0
   17.0910   -9.9060    5.4130 O   0  0  0  0  0  0  0  0  0  0  0  0
   18.0200   -8.7780    5.4060 C   0  0  0  0  0  0  0  0  0  0  0  0
   17.6260   -7.8220    4.2900 C   0  0  0  0  0  0  0  0  0  0  0  0
   18.0580   -6.3810    4.5980 C   0  0  0  0  0  0  0  0  0  0  0  0
   19.5690   -6.2260    4.7050 C   0  0  0  0  0  0  0  0  0  0  0  0
   21.4690   -4.5510    4.8760 C   0  0  0  0  0  0  0  0  0  0  0  0
   19.9850   -4.7450    4.5370 C   0  0  0  0  0  0  0  0  0  0  0  0
   15.3740  -12.0180    6.1540 O   0  0  0  0  0  0  0  0  0  0  0  0
   14.4960  -12.6440    5.2590 C   0  0  2  0  0  0  0  0  0  0  0  0
   14.5580  -11.9900    3.9870 O   0  0  0  0  0  0  0  0  0  0  0  0
   14.2290  -10.5530    4.0150 C   0  0  1  0  0  0  0  0  0  0  0  0
   14.4170   -9.9560    2.6150 C   0  0  0  0  0  0  0  0  0  0  0  0
   12.8280  -10.3890    4.5880 C   0  0  1  0  0  0  0  0  0  0  0  0
   11.8390  -10.9210    3.6790 O   0  0  0  0  0  0  0  0  0  0  0  0
   12.6920  -11.0810    5.9440 C   0  0  1  0  0  0  0  0  0  0  0  0
   11.3540  -10.9710    6.4790 O   0  0  0  0  0  0  0  0  0  0  0  0
   13.0820  -12.5460    5.8500 C   0  0  2  0  0  0  0  0  0  0  0  0
   13.0680  -13.1200    7.1530 O   0  0  0  0  0  0  0  0  0  0  0  0
  1 10  1  6  0  0  0
  1  2  1  0  0  0  0
  1  7  1  0  0  0  0
  2  3  1  0  0  0  0
  3  8  1  6  0  0  0
  3  4  1  0  0  0  0
  4  5  1  6  0  0  0
  4  6  1  0  0  0  0
  6  7  1  0  0  0  0
  7 17  1  1  0  0  0
  8  9  1  0  0  0  0
 10 11  1  0  0  0  0
 11 12  1  0  0  0  0
 12 13  1  0  0  0  0
 13 14  1  0  0  0  0
 14 16  1  0  0  0  0
 15 16  1  0  0  0  0
 18 17  1  1  0  0  0
 18 19  1  0  0  0  0
 18 26  1  0  0  0  0
 19 20  1  0  0  0  0
 20 21  1  6  0  0  0
 20 22  1  0  0  0  0
 22 23  1  6  0  0  0
 22 24  1  0  0  0  0
 24 26  1  0  0  0  0
 24 25  1  6  0  0  0
 26 27  1  1  0  0  0
M  END
>  <COMPND>
    UNNAMED

>  <AUTHOR>
    GENERATED BY OPEN BABEL 2.4.90

>  <MASTER>
        0    0    0    0    0    0    0    0   27    0   27    0

