__2rj7_A_rec_1zi5_dr3_lig_min.pdb
 OpenBabel10181913143D

 36 38  0  0  1  0  0  0  0  0999 V2000
   16.7070  -12.3120    5.8570 C   0  0  2  0  0  0  0  0  0  0  0  0
   17.3680  -13.5030    6.5540 C   0  0  1  0  0  0  0  0  0  0  0  0
   16.7580  -14.7180    6.1120 O   0  0  0  0  0  0  0  0  0  0  0  0
   18.8690  -13.5420    6.2510 C   0  0  1  0  0  0  0  0  0  0  0  0
   19.0690  -13.7810    4.8550 O   0  0  0  0  0  0  0  0  0  0  0  0
   19.4980  -12.2010    6.6400 C   0  0  2  0  0  0  0  0  0  0  0  0
   18.8330  -11.1420    5.9340 O   0  0  0  0  0  0  0  0  0  0  0  0
   17.4400  -11.0490    6.2840 C   0  0  1  0  0  0  0  0  0  0  0  0
   20.9900  -12.1910    6.2960 C   0  0  0  0  0  0  0  0  0  0  0  0
   21.6450  -11.1690    7.0510 O   0  0  0  0  0  0  0  0  0  0  0  0
   15.3260  -12.2030    6.2420 O   0  0  0  0  0  0  0  0  0  0  0  0
   13.0380  -13.6110    7.0860 O   0  0  0  0  0  0  0  0  0  0  0  0
   13.0410  -12.8950    5.8490 C   0  0  1  0  0  0  0  0  0  0  0  0
   12.4760  -11.4860    6.0550 C   0  0  2  0  0  0  0  0  0  0  0  0
   11.1070  -11.5730    6.4580 O   0  0  0  0  0  0  0  0  0  0  0  0
   12.5790  -10.6800    4.7580 C   0  0  2  0  0  0  0  0  0  0  0  0
   11.7070  -11.2400    3.7740 O   0  0  0  0  0  0  0  0  0  0  0  0
   14.0240  -10.7050    4.2500 C   0  0  2  0  0  0  0  0  0  0  0  0
   14.1400   -9.9310    2.9350 C   0  0  0  0  0  0  0  0  0  0  0  0
   14.4540  -12.0620    4.0570 O   0  0  0  0  0  0  0  0  0  0  0  0
   14.4610  -12.8230    5.2790 C   0  0  1  0  0  0  0  0  0  0  0  0
   16.8540   -9.9280    5.6050 O   0  0  0  0  0  0  0  0  0  0  0  0
   17.3280   -8.7010    6.1790 C   0  0  1  0  0  0  0  0  0  0  0  0
   17.8870   -7.7710    5.0980 C   0  0  2  0  0  0  0  0  0  0  0  0
   19.0190   -8.3880    4.4810 O   0  0  0  0  0  0  0  0  0  0  0  0
   18.3020   -6.4330    5.7170 C   0  0  2  0  0  0  0  0  0  0  0  0
   17.1850   -5.8340    6.3940 O   0  0  0  0  0  0  0  0  0  0  0  0
   16.7120   -6.6440    7.4840 C   0  0  1  0  0  0  0  0  0  0  0  0
   15.6460   -5.9720    8.1580 O   0  0  0  0  0  0  0  0  0  0  0  0
   16.2110   -7.9870    6.9460 C   0  0  2  0  0  0  0  0  0  0  0  0
   15.7330   -8.8330    8.0510 N   0  0  0  0  0  0  0  0  0  0  0  0
   14.4790   -9.2670    8.1620 C   0  0  0  0  0  0  0  0  0  0  0  0
   13.4010   -8.3800    7.5340 C   0  0  0  0  0  0  0  0  0  0  0  0
   14.1460  -10.0500    9.2210 O   0  0  0  0  0  0  0  0  0  0  0  0
   18.7980   -5.4860    4.6230 C   0  0  0  0  0  0  0  0  0  0  0  0
   17.7340   -5.2070    3.7110 O   0  0  0  0  0  0  0  0  0  0  0  0
  1  8  1  0  0  0  0
  1 11  1  1  0  0  0
  1  2  1  0  0  0  0
  2  3  1  6  0  0  0
  2  4  1  0  0  0  0
  4  5  1  6  0  0  0
  4  6  1  0  0  0  0
  6  7  1  0  0  0  0
  6  9  1  6  0  0  0
  7  8  1  0  0  0  0
  8 22  1  6  0  0  0
  9 10  1  0  0  0  0
 13 12  1  1  0  0  0
 13 21  1  0  0  0  0
 13 14  1  0  0  0  0
 14 16  1  0  0  0  0
 14 15  1  6  0  0  0
 16 17  1  6  0  0  0
 16 18  1  0  0  0  0
 18 19  1  6  0  0  0
 18 20  1  0  0  0  0
 20 21  1  0  0  0  0
 21 11  1  1  0  0  0
 23 22  1  6  0  0  0
 23 24  1  0  0  0  0
 23 30  1  0  0  0  0
 24 25  1  1  0  0  0
 24 26  1  0  0  0  0
 26 35  1  6  0  0  0
 26 27  1  0  0  0  0
 27 28  1  0  0  0  0
 28 30  1  0  0  0  0
 28 29  1  6  0  0  0
 30 31  1  1  0  0  0
 31 32  1  0  0  0  0
 32 33  1  0  0  0  0
 32 34  2  0  0  0  0
 35 36  1  0  0  0  0
M  END
>  <COMPND>
    UNNAMED

>  <AUTHOR>
    GENERATED BY OPEN BABEL 2.4.90

>  <MASTER>
        0    0    0    0    0    0    0    0   36    0   36    0

