__2rj7_A_rec_2rj4_udp_lig_docked.pdb
 OpenBabel10181920533D

 25 26  0  0  1  0  0  0  0  0999 V2000
   10.7110  -23.2330    6.1610 C   0  0  1  0  0  0  0  0  0  0  0  0
    9.7800  -22.3630    5.3190 C   0  0  2  0  0  0  0  0  0  0  0  0
    9.6700  -22.9510    4.0150 O   0  0  0  0  0  0  0  0  0  0  0  0
   10.5720  -21.0780    5.2340 C   0  0  1  0  0  0  0  0  0  0  0  0
   11.9870  -21.6250    5.0030 C   0  0  2  0  0  0  0  0  0  0  0  0
   12.0650  -22.7730    5.8870 O   0  0  0  0  0  0  0  0  0  0  0  0
   10.1370  -20.3140    4.0910 O   0  0  0  0  0  0  0  0  0  0  0  0
   10.3910  -23.1220    7.6130 N   0  0  0  0  0  0  0  0  0  0  0  0
    9.2220  -23.7510    8.0900 C   0  0  0  0  0  0  0  0  0  0  0  0
    8.9170  -23.6850    9.4500 N   0  0  0  0  0  0  0  0  0  0  0  0
    9.7410  -23.0000   10.3580 C   0  0  0  0  0  0  0  0  0  0  0  0
   10.9030  -22.3820    9.8900 C   0  0  0  0  0  0  0  0  0  0  0  0
   11.2270  -22.4430    8.5300 C   0  0  0  0  0  0  0  0  0  0  0  0
    8.4730  -24.3520    7.3170 O   0  0  0  0  0  0  0  0  0  0  0  0
    9.4250  -22.9670   11.5530 O   0  0  0  0  0  0  0  0  0  0  0  0
   13.1240  -20.6600    5.3740 C   0  0  0  0  0  0  0  0  0  0  0  0
   12.6420  -19.4490    5.8880 O   0  0  0  0  0  0  0  0  0  0  0  0
   12.9880  -19.0330    7.4410 P   0  0  1  0  0  0  0  0  0  0  0  0
   11.6920  -18.8160    8.1650 O   0  0  0  0  0  0  0  0  0  0  0  0
   13.9490  -20.0370    7.9580 O   0  0  0  0  0  0  0  0  0  0  0  0
   13.7350  -17.6130    7.2180 O   0  0  0  0  0  0  0  0  0  0  0  0
   13.2020  -16.5630    6.1380 P   0  0  0  0  0  0  0  0  0  0  0  0
   14.0300  -16.5720    4.8910 O   0  0  0  0  0  0  0  0  0  0  0  0
   11.6530  -16.9120    5.8920 O   0  0  0  0  0  0  0  0  0  0  0  0
   13.2260  -15.1610    6.8380 O   0  0  0  0  0  0  0  0  0  0  0  0
  1  2  1  0  0  0  0
  1  6  1  0  0  0  0
  1  8  1  1  0  0  0
  2  3  1  6  0  0  0
  2  4  1  0  0  0  0
  4  7  1  6  0  0  0
  4  5  1  0  0  0  0
  5 16  1  1  0  0  0
  5  6  1  0  0  0  0
  8  9  1  0  0  0  0
  8 13  1  0  0  0  0
  9 14  2  0  0  0  0
  9 10  1  0  0  0  0
 10 11  1  0  0  0  0
 11 12  1  0  0  0  0
 11 15  2  0  0  0  0
 12 13  2  0  0  0  0
 16 17  1  0  0  0  0
 17 18  1  0  0  0  0
 18 19  2  1  0  0  0
 18 21  1  0  0  0  0
 18 20  1  0  0  0  0
 21 22  1  0  0  0  0
 22 25  2  0  0  0  0
 22 24  1  0  0  0  0
 22 23  1  0  0  0  0
M  END
>  <MODEL>
       1

>  <COMPND>
    UNNAMED

>  <AUTHOR>
    GENERATED BY OPEN BABEL 2.4.90

>  <MASTER>
        0    0    0    0    0    0    0    0   25    0   25    0

