__2rj7_A_rec_2rj5_udp_lig_docked.pdb
 OpenBabel10181920523D

 25 26  0  0  1  0  0  0  0  0999 V2000
   10.6880  -23.2630    6.0560 C   0  0  1  0  0  0  0  0  0  0  0  0
    9.7770  -22.3640    5.1890 C   0  0  2  0  0  0  0  0  0  0  0  0
    9.6260  -22.7920    3.7970 O   0  0  0  0  0  0  0  0  0  0  0  0
   10.5650  -21.0930    5.1990 C   0  0  1  0  0  0  0  0  0  0  0  0
   11.9790  -21.6390    4.9750 C   0  0  2  0  0  0  0  0  0  0  0  0
   12.0480  -22.7990    5.8410 O   0  0  0  0  0  0  0  0  0  0  0  0
   10.1310  -20.3080    4.0930 O   0  0  0  0  0  0  0  0  0  0  0  0
   10.3500  -23.1820    7.5250 N   0  0  0  0  0  0  0  0  0  0  0  0
    9.1830  -23.7970    7.9880 C   0  0  0  0  0  0  0  0  0  0  0  0
    8.8300  -23.7550    9.3400 N   0  0  0  0  0  0  0  0  0  0  0  0
    9.6420  -23.0910   10.2600 C   0  0  0  0  0  0  0  0  0  0  0  0
   10.8100  -22.4670    9.8220 C   0  0  0  0  0  0  0  0  0  0  0  0
   11.1670  -22.5100    8.4670 C   0  0  0  0  0  0  0  0  0  0  0  0
    8.4620  -24.3800    7.1950 O   0  0  0  0  0  0  0  0  0  0  0  0
    9.2920  -23.0750   11.4500 O   0  0  0  0  0  0  0  0  0  0  0  0
   13.0880  -20.6370    5.3550 C   0  0  0  0  0  0  0  0  0  0  0  0
   12.5480  -19.4110    5.8170 O   0  0  0  0  0  0  0  0  0  0  0  0
   12.9260  -18.8860    7.2880 P   0  0  1  0  0  0  0  0  0  0  0  0
   11.6840  -18.5970    8.0470 O   0  0  0  0  0  0  0  0  0  0  0  0
   13.8700  -19.8720    7.8340 O   0  0  0  0  0  0  0  0  0  0  0  0
   13.7340  -17.5440    6.9480 O   0  0  0  0  0  0  0  0  0  0  0  0
   13.2150  -16.4140    5.9360 P   0  0  0  0  0  0  0  0  0  0  0  0
   11.7610  -16.8610    5.3740 O   0  0  0  0  0  0  0  0  0  0  0  0
   13.1970  -15.0930    6.6030 O   0  0  0  0  0  0  0  0  0  0  0  0
   14.1830  -16.4100    4.6540 O   0  0  0  0  0  0  0  0  0  0  0  0
  1  2  1  0  0  0  0
  1  6  1  0  0  0  0
  1  8  1  1  0  0  0
  2  3  1  6  0  0  0
  2  4  1  0  0  0  0
  4  7  1  6  0  0  0
  4  5  1  0  0  0  0
  5 16  1  1  0  0  0
  5  6  1  0  0  0  0
  8  9  1  0  0  0  0
  8 13  1  0  0  0  0
  9 14  2  0  0  0  0
  9 10  1  0  0  0  0
 10 11  1  0  0  0  0
 11 12  1  0  0  0  0
 11 15  2  0  0  0  0
 12 13  2  0  0  0  0
 16 17  1  0  0  0  0
 17 18  1  0  0  0  0
 18 19  2  1  0  0  0
 18 21  1  0  0  0  0
 18 20  1  0  0  0  0
 21 22  1  0  0  0  0
 22 25  2  0  0  0  0
 22 24  1  0  0  0  0
 22 23  1  0  0  0  0
M  END
>  <MODEL>
       1

>  <COMPND>
    UNNAMED

>  <AUTHOR>
    GENERATED BY OPEN BABEL 2.4.90

>  <MASTER>
        0    0    0    0    0    0    0    0   25    0   25    0

