__2rj7_A_rec_2rj1_udp_lig_docked.pdb
 OpenBabel10181920563D

 25 26  0  0  1  0  0  0  0  0999 V2000
   10.7440  -23.2300    6.1820 C   0  0  1  0  0  0  0  0  0  0  0  0
    9.7970  -22.3960    5.3190 C   0  0  2  0  0  0  0  0  0  0  0  0
    9.7190  -22.9790    4.0110 O   0  0  0  0  0  0  0  0  0  0  0  0
   10.5730  -21.0970    5.2260 C   0  0  1  0  0  0  0  0  0  0  0  0
   12.0320  -21.5930    5.0850 C   0  0  2  0  0  0  0  0  0  0  0  0
   12.0960  -22.7380    5.9710 O   0  0  0  0  0  0  0  0  0  0  0  0
   10.1780  -20.3100    4.0890 O   0  0  0  0  0  0  0  0  0  0  0  0
   10.3970  -23.1210    7.6150 N   0  0  0  0  0  0  0  0  0  0  0  0
    9.2150  -23.7560    8.0310 C   0  0  0  0  0  0  0  0  0  0  0  0
    8.8610  -23.6990    9.3820 N   0  0  0  0  0  0  0  0  0  0  0  0
    9.6450  -23.0300   10.3070 C   0  0  0  0  0  0  0  0  0  0  0  0
   10.8300  -22.3960    9.8890 C   0  0  0  0  0  0  0  0  0  0  0  0
   11.2070  -22.4510    8.5430 C   0  0  0  0  0  0  0  0  0  0  0  0
    8.5130  -24.3460    7.2110 O   0  0  0  0  0  0  0  0  0  0  0  0
    9.2690  -23.0210   11.4840 O   0  0  0  0  0  0  0  0  0  0  0  0
   13.1030  -20.5540    5.4720 C   0  0  0  0  0  0  0  0  0  0  0  0
   12.4910  -19.3440    5.8480 O   0  0  0  0  0  0  0  0  0  0  0  0
   12.7590  -18.7830    7.3190 P   0  0  1  0  0  0  0  0  0  0  0  0
   11.4730  -18.3320    7.8930 O   0  0  0  0  0  0  0  0  0  0  0  0
   13.5580  -19.8050    8.0280 O   0  0  0  0  0  0  0  0  0  0  0  0
   13.7290  -17.5200    7.0130 O   0  0  0  0  0  0  0  0  0  0  0  0
   13.3780  -16.2270    6.1220 P   0  0  0  0  0  0  0  0  0  0  0  0
   12.0390  -16.5420    5.2810 O   0  0  0  0  0  0  0  0  0  0  0  0
   13.1780  -15.1220    7.1190 O   0  0  0  0  0  0  0  0  0  0  0  0
   14.6100  -15.8870    5.1850 O   0  0  0  0  0  0  0  0  0  0  0  0
  1  2  1  0  0  0  0
  1  6  1  0  0  0  0
  1  8  1  1  0  0  0
  2  3  1  6  0  0  0
  2  4  1  0  0  0  0
  4  7  1  6  0  0  0
  4  5  1  0  0  0  0
  5 16  1  1  0  0  0
  5  6  1  0  0  0  0
  8  9  1  0  0  0  0
  8 13  1  0  0  0  0
  9 14  2  0  0  0  0
  9 10  1  0  0  0  0
 10 11  1  0  0  0  0
 11 12  1  0  0  0  0
 11 15  2  0  0  0  0
 12 13  2  0  0  0  0
 16 17  1  0  0  0  0
 17 18  1  0  0  0  0
 18 19  2  1  0  0  0
 18 21  1  0  0  0  0
 18 20  1  0  0  0  0
 21 22  1  0  0  0  0
 22 25  2  0  0  0  0
 22 24  1  0  0  0  0
 22 23  1  0  0  0  0
M  END
>  <MODEL>
       2

>  <COMPND>
    UNNAMED

>  <AUTHOR>
    GENERATED BY OPEN BABEL 2.4.90

>  <MASTER>
        0    0    0    0    0    0    0    0   25    0   25    0

