__3i0j_A_rec_4kc4_bhe_lig_min.pdb
 OpenBabel10181904583D

 30 31  0  0  1  0  0  0  0  0999 V2000
   17.7020  -10.8400    6.0520 C   0  0  2  0  0  0  0  0  0  0  0  0
   19.0540  -11.1470    5.6620 O   0  0  0  0  0  0  0  0  0  0  0  0
   19.6010  -12.2380    6.4220 C   0  0  1  0  0  0  0  0  0  0  0  0
   18.7980  -13.5270    6.1260 C   0  0  2  0  0  0  0  0  0  0  0  0
   18.8570  -13.8690    4.7300 O   0  0  0  0  0  0  0  0  0  0  0  0
   17.3330  -13.2750    6.5110 C   0  0  2  0  0  0  0  0  0  0  0  0
   16.5200  -14.4150    6.1910 O   0  0  0  0  0  0  0  0  0  0  0  0
   16.7960  -12.0380    5.7750 C   0  0  1  0  0  0  0  0  0  0  0  0
   21.8770  -11.4030    6.7700 O   0  0  0  0  0  0  0  0  0  0  0  0
   21.0980  -12.4070    6.0980 C   0  0  0  0  0  0  0  0  0  0  0  0
   17.2650   -9.7190    5.2850 O   0  0  0  0  0  0  0  0  0  0  0  0
   17.5500   -8.4760    5.9310 C   0  0  0  0  0  0  0  0  0  0  0  0
   16.2150   -7.8600    6.3460 C   0  0  0  0  0  0  0  0  0  0  0  0
   16.4240   -6.8720    7.4910 C   0  0  0  0  0  0  0  0  0  0  0  0
   16.2860   -5.4500    6.9610 C   0  0  0  0  0  0  0  0  0  0  0  0
   17.6420   -4.7300    7.0340 C   0  0  0  0  0  0  0  0  0  0  0  0
   18.3220   -4.8410    5.6710 C   0  0  0  0  0  0  0  0  0  0  0  0
   17.4040   -4.2540    4.5940 C   0  0  0  0  0  0  0  0  0  0  0  0
   18.2500   -3.6530    3.4710 C   0  0  0  0  0  0  0  0  0  0  0  0
   15.4780  -11.7340    6.2380 O   0  0  0  0  0  0  0  0  0  0  0  0
   14.4310  -12.2490    5.3670 C   0  0  1  0  0  0  0  0  0  0  0  0
   13.1160  -12.2600    6.1430 C   0  0  1  0  0  0  0  0  0  0  0  0
   13.2980  -13.0140    7.3530 O   0  0  0  0  0  0  0  0  0  0  0  0
   12.7410  -10.7920    6.4650 C   0  0  2  0  0  0  0  0  0  0  0  0
   11.5080  -10.7000    7.1610 O   0  0  0  0  0  0  0  0  0  0  0  0
   12.6170   -9.9890    5.1740 C   0  0  2  0  0  0  0  0  0  0  0  0
   11.5340  -10.5140    4.3800 O   0  0  0  0  0  0  0  0  0  0  0  0
   13.9430  -10.0730    4.4250 C   0  0  1  0  0  0  0  0  0  0  0  0
   14.2830  -11.4710    4.1560 O   0  0  0  0  0  0  0  0  0  0  0  0
   13.9050   -9.2760    3.1220 C   0  0  0  0  0  0  0  0  0  0  0  0
  1 11  1  6  0  0  0
  1  2  1  0  0  0  0
  1  8  1  0  0  0  0
  2  3  1  0  0  0  0
  3 10  1  6  0  0  0
  3  4  1  0  0  0  0
  4  5  1  6  0  0  0
  4  6  1  0  0  0  0
  6  8  1  0  0  0  0
  6  7  1  6  0  0  0
  8 20  1  1  0  0  0
  9 10  1  0  0  0  0
 11 12  1  0  0  0  0
 12 13  1  0  0  0  0
 13 14  1  0  0  0  0
 14 15  1  0  0  0  0
 15 16  1  0  0  0  0
 16 17  1  0  0  0  0
 17 18  1  0  0  0  0
 18 19  1  0  0  0  0
 21 20  1  1  0  0  0
 21 29  1  0  0  0  0
 21 22  1  0  0  0  0
 22 24  1  0  0  0  0
 22 23  1  1  0  0  0
 24 26  1  0  0  0  0
 24 25  1  6  0  0  0
 26 27  1  6  0  0  0
 26 28  1  0  0  0  0
 28 30  1  6  0  0  0
 28 29  1  0  0  0  0
M  END
>  <COMPND>
    UNNAMED

>  <AUTHOR>
    GENERATED BY OPEN BABEL 2.4.90

>  <MASTER>
        0    0    0    0    0    0    0    0   30    0   30    0

