__3i0j_A_rec_1zi3_nlc_lig_min.pdb
 OpenBabel10181907193D

 26 27  0  0  1  0  0  0  0  0999 V2000
   17.5320   -5.8480    6.4990 C   0  0  2  0  0  0  0  0  0  0  0  0
   17.4150   -5.4750    5.1230 O   0  0  0  0  0  0  0  0  0  0  0  0
   18.7870   -6.7020    6.7000 C   0  0  1  0  0  0  0  0  0  0  0  0
   18.6450   -8.0260    5.9460 C   0  0  1  0  0  0  0  0  0  0  0  0
   19.7740   -8.8520    6.2370 O   0  0  0  0  0  0  0  0  0  0  0  0
   17.3600   -8.7490    6.3590 C   0  0  1  0  0  0  0  0  0  0  0  0
   16.1890   -7.7980    6.1490 C   0  0  2  0  0  0  0  0  0  0  0  0
   16.3710   -6.5900    6.9100 O   0  0  0  0  0  0  0  0  0  0  0  0
   19.9560   -5.9680    6.1910 N   0  0  0  0  0  0  0  0  0  0  0  0
   21.0560   -5.7830    6.9170 C   0  0  0  0  0  0  0  0  0  0  0  0
   22.1620   -4.9890    6.2180 C   0  0  0  0  0  0  0  0  0  0  0  0
   21.2070   -6.1970    8.0650 O   0  0  0  0  0  0  0  0  0  0  0  0
   14.8870   -8.4780    6.5770 C   0  0  0  0  0  0  0  0  0  0  0  0
   15.1300   -9.3240    7.7040 O   0  0  0  0  0  0  0  0  0  0  0  0
   17.1500   -9.9310    5.5690 O   0  0  0  0  0  0  0  0  0  0  0  0
   16.7150  -12.2740    5.9160 C   0  0  2  0  0  0  0  0  0  0  0  0
   15.4030  -12.0080    6.4230 O   0  0  0  0  0  0  0  0  0  0  0  0
   17.2600  -13.5670    6.5270 C   0  0  1  0  0  0  0  0  0  0  0  0
   16.4540  -14.6700    6.1070 O   0  0  0  0  0  0  0  0  0  0  0  0
   18.7030  -13.7890    6.0720 C   0  0  2  0  0  0  0  0  0  0  0  0
   19.5400  -12.5520    6.4100 C   0  0  2  0  0  0  0  0  0  0  0  0
   17.6480  -11.1030    6.2330 C   0  0  1  0  0  0  0  0  0  0  0  0
   18.9740  -11.4000    5.7610 O   0  0  0  0  0  0  0  0  0  0  0  0
   18.7200  -13.9970    4.6570 O   0  0  0  0  0  0  0  0  0  0  0  0
   20.9850  -12.7520    5.9480 C   0  0  0  0  0  0  0  0  0  0  0  0
   21.8140  -11.7400    6.5250 O   0  0  0  0  0  0  0  0  0  0  0  0
  1  2  1  6  0  0  0
  1  3  1  0  0  0  0
  1  8  1  0  0  0  0
  3  9  1  6  0  0  0
  3  4  1  0  0  0  0
  4  5  1  1  0  0  0
  4  6  1  0  0  0  0
  6 15  1  6  0  0  0
  6  7  1  0  0  0  0
  7  8  1  0  0  0  0
  7 13  1  1  0  0  0
  9 10  1  0  0  0  0
 10 11  1  0  0  0  0
 10 12  2  0  0  0  0
 13 14  1  0  0  0  0
 16 22  1  0  0  0  0
 16 17  1  1  0  0  0
 16 18  1  0  0  0  0
 18 20  1  0  0  0  0
 18 19  1  6  0  0  0
 20 24  1  6  0  0  0
 20 21  1  0  0  0  0
 21 23  1  0  0  0  0
 21 25  1  6  0  0  0
 22 15  1  6  0  0  0
 22 23  1  0  0  0  0
 25 26  1  0  0  0  0
M  END
>  <COMPND>
    UNNAMED

>  <AUTHOR>
    GENERATED BY OPEN BABEL 2.4.90

>  <MASTER>
        0    0    0    0    0    0    0    0   26    0   26    0

