__3ioi_A_rec_5c4e_udp_lig_min.pdb
 OpenBabel10171923273D

 25 26  0  0  1  0  0  0  0  0999 V2000
   10.4170  -23.2320    6.0040 C   0  0  1  0  0  0  0  0  0  0  0  0
    9.5500  -22.3500    5.1220 C   0  0  2  0  0  0  0  0  0  0  0  0
    9.6220  -22.7430    3.7550 O   0  0  0  0  0  0  0  0  0  0  0  0
   10.2700  -21.0350    5.2670 C   0  0  1  0  0  0  0  0  0  0  0  0
   11.7300  -21.4680    5.2490 C   0  0  2  0  0  0  0  0  0  0  0  0
   11.7430  -22.7020    5.9820 O   0  0  0  0  0  0  0  0  0  0  0  0
    9.9090  -20.1340    4.1990 O   0  0  0  0  0  0  0  0  0  0  0  0
    9.9370  -23.2450    7.3810 N   0  0  0  0  0  0  0  0  0  0  0  0
    9.0160  -24.2550    7.7000 C   0  0  0  0  0  0  0  0  0  0  0  0
    8.5470  -24.3680    8.9570 N   0  0  0  0  0  0  0  0  0  0  0  0
    8.9470  -23.5500    9.9500 C   0  0  0  0  0  0  0  0  0  0  0  0
    9.8730  -22.5440    9.6650 C   0  0  0  0  0  0  0  0  0  0  0  0
   10.3730  -22.4150    8.3630 C   0  0  0  0  0  0  0  0  0  0  0  0
    8.6430  -25.0270    6.7920 O   0  0  0  0  0  0  0  0  0  0  0  0
    8.4660  -23.7100   11.1150 O   0  0  0  0  0  0  0  0  0  0  0  0
   12.7580  -20.5060    5.8480 C   0  0  0  0  0  0  0  0  0  0  0  0
   12.1940  -19.8340    6.9780 O   0  0  0  0  0  0  0  0  0  0  0  0
   12.0100  -18.2330    7.0230 P   0  0  2  0  0  0  0  0  0  0  0  0
   11.3860  -17.9310    8.3750 O   0  0  0  0  0  0  0  0  0  0  0  0
   11.3450  -17.7970    5.7260 O   0  0  0  0  0  0  0  0  0  0  0  0
   13.5570  -17.7310    7.0270 O   0  0  0  0  0  0  0  0  0  0  0  0
   14.1150  -16.4020    6.2540 P   0  0  0  0  0  0  0  0  0  0  0  0
   13.0380  -15.3400    6.2890 O   0  0  0  0  0  0  0  0  0  0  0  0
   14.4870  -16.7820    4.8190 O   0  0  0  0  0  0  0  0  0  0  0  0
   15.3140  -16.0310    7.1090 O   0  0  0  0  0  0  0  0  0  0  0  0
  1  2  1  0  0  0  0
  1  6  1  0  0  0  0
  1  8  1  1  0  0  0
  2  3  1  6  0  0  0
  2  4  1  0  0  0  0
  4  7  1  6  0  0  0
  4  5  1  0  0  0  0
  5 16  1  1  0  0  0
  5  6  1  0  0  0  0
  8  9  1  0  0  0  0
  8 13  1  0  0  0  0
  9 14  2  0  0  0  0
  9 10  1  0  0  0  0
 10 11  1  0  0  0  0
 11 12  1  0  0  0  0
 11 15  2  0  0  0  0
 12 13  2  0  0  0  0
 16 17  1  0  0  0  0
 17 18  1  0  0  0  0
 18 20  2  6  0  0  0
 18 21  1  0  0  0  0
 18 19  1  0  0  0  0
 21 22  1  0  0  0  0
 22 24  2  0  0  0  0
 22 25  1  0  0  0  0
 22 23  1  0  0  0  0
M  END
>  <COMPND>
    UNNAMED

>  <AUTHOR>
    GENERATED BY OPEN BABEL 2.4.90

>  <MASTER>
        0    0    0    0    0    0    0    0   25    0   25    0

