__3ioi_A_rec_3v0q_udp_lig_min.pdb
 OpenBabel10181908343D

 25 26  0  0  1  0  0  0  0  0999 V2000
   10.4460  -23.1430    6.0700 C   0  0  1  0  0  0  0  0  0  0  0  0
    9.5560  -22.2610    5.2150 C   0  0  2  0  0  0  0  0  0  0  0  0
    9.5980  -22.7500    3.8890 O   0  0  0  0  0  0  0  0  0  0  0  0
   10.2760  -20.9390    5.2760 C   0  0  1  0  0  0  0  0  0  0  0  0
   11.7260  -21.3870    5.2700 C   0  0  2  0  0  0  0  0  0  0  0  0
   11.7460  -22.5850    6.0270 O   0  0  0  0  0  0  0  0  0  0  0  0
    9.9430  -20.1400    4.1620 O   0  0  0  0  0  0  0  0  0  0  0  0
    9.9380  -23.2490    7.4620 N   0  0  0  0  0  0  0  0  0  0  0  0
    9.0220  -24.2500    7.7260 C   0  0  0  0  0  0  0  0  0  0  0  0
    8.5120  -24.4220    9.0020 N   0  0  0  0  0  0  0  0  0  0  0  0
    8.9230  -23.5890   10.0300 C   0  0  0  0  0  0  0  0  0  0  0  0
    9.8530  -22.5760    9.7650 C   0  0  0  0  0  0  0  0  0  0  0  0
   10.2750  -22.3520    8.4430 C   0  0  0  0  0  0  0  0  0  0  0  0
    8.6470  -24.9840    6.8140 O   0  0  0  0  0  0  0  0  0  0  0  0
    8.4530  -23.7690   11.1620 O   0  0  0  0  0  0  0  0  0  0  0  0
   12.6720  -20.3520    5.8670 C   0  0  0  0  0  0  0  0  0  0  0  0
   12.0050  -19.7360    6.9430 O   0  0  0  0  0  0  0  0  0  0  0  0
   11.9130  -18.1460    6.9380 P   0  0  2  0  0  0  0  0  0  0  0  0
   11.1570  -17.6510    8.1070 O   0  0  0  0  0  0  0  0  0  0  0  0
   11.3390  -17.7240    5.6390 O   0  0  0  0  0  0  0  0  0  0  0  0
   13.4420  -17.7150    7.0130 O   0  0  0  0  0  0  0  0  0  0  0  0
   14.0610  -16.4220    6.2710 P   0  0  0  0  0  0  0  0  0  0  0  0
   13.0920  -15.3000    6.2710 O   0  0  0  0  0  0  0  0  0  0  0  0
   14.4820  -16.6960    4.8730 O   0  0  0  0  0  0  0  0  0  0  0  0
   15.2300  -16.0480    7.0990 O   0  0  0  0  0  0  0  0  0  0  0  0
  1  2  1  0  0  0  0
  1  6  1  0  0  0  0
  1  8  1  1  0  0  0
  2  3  1  6  0  0  0
  2  4  1  0  0  0  0
  4  7  1  6  0  0  0
  4  5  1  0  0  0  0
  5 16  1  1  0  0  0
  5  6  1  0  0  0  0
  8  9  1  0  0  0  0
  8 13  1  0  0  0  0
  9 14  2  0  0  0  0
  9 10  1  0  0  0  0
 10 11  1  0  0  0  0
 11 12  1  0  0  0  0
 11 15  2  0  0  0  0
 12 13  2  0  0  0  0
 16 17  1  0  0  0  0
 17 18  1  0  0  0  0
 18 20  2  6  0  0  0
 18 21  1  0  0  0  0
 18 19  1  0  0  0  0
 21 22  1  0  0  0  0
 22 24  2  0  0  0  0
 22 25  1  0  0  0  0
 22 23  1  0  0  0  0
M  END
>  <COMPND>
    UNNAMED

>  <AUTHOR>
    GENERATED BY OPEN BABEL 2.4.90

>  <MASTER>
        0    0    0    0    0    0    0    0   25    0   25    0

