__3ioi_A_rec_5c4e_4ya_lig_min.pdb
 OpenBabel10181901493D

 28 29  0  0  1  0  0  0  0  0999 V2000
   17.5500  -11.0510    6.2000 C   0  0  2  0  0  0  0  0  0  0  0  0
   18.8770  -11.2500    5.7270 O   0  0  0  0  0  0  0  0  0  0  0  0
   19.5610  -12.2550    6.4680 C   0  0  1  0  0  0  0  0  0  0  0  0
   18.8880  -13.6180    6.1820 C   0  0  2  0  0  0  0  0  0  0  0  0
   18.9040  -13.9220    4.7410 O   0  0  0  0  0  0  0  0  0  0  0  0
   17.3940  -13.5570    6.6280 C   0  0  2  0  0  0  0  0  0  0  0  0
   16.7150  -14.7680    6.2320 O   0  0  0  0  0  0  0  0  0  0  0  0
   16.6890  -12.3250    5.9870 C   0  0  1  0  0  0  0  0  0  0  0  0
   21.7380  -11.3170    6.7990 O   0  0  0  0  0  0  0  0  0  0  0  0
   21.0260  -12.2790    6.0070 C   0  0  0  0  0  0  0  0  0  0  0  0
   16.9590  -10.0200    5.4630 O   0  0  0  0  0  0  0  0  0  0  0  0
   17.3230   -8.7270    6.0480 C   0  0  0  0  0  0  0  0  0  0  0  0
   16.1260   -7.9020    6.4760 C   0  0  0  0  0  0  0  0  0  0  0  0
   15.2650   -8.6010    7.5170 C   0  0  0  0  0  0  0  0  0  0  0  0
   14.5740   -7.6330    8.4960 C   0  0  0  0  0  0  0  0  0  0  0  0
   12.1900   -7.1130    9.2410 C   0  0  0  0  0  0  0  0  0  0  0  0
   13.2470   -8.2080    8.9820 C   0  0  0  0  0  0  0  0  0  0  0  0
   15.3560  -12.1460    6.5650 O   0  0  0  0  0  0  0  0  0  0  0  0
   14.3070  -12.7330    5.8180 C   0  0  1  0  0  0  0  0  0  0  0  0
   13.0570  -12.6640    6.6950 C   0  0  1  0  0  0  0  0  0  0  0  0
   13.3730  -13.1620    8.0060 O   0  0  0  0  0  0  0  0  0  0  0  0
   12.6450  -11.1780    6.8160 C   0  0  2  0  0  0  0  0  0  0  0  0
   11.3970  -11.1100    7.5480 O   0  0  0  0  0  0  0  0  0  0  0  0
   12.4610  -10.5650    5.4450 C   0  0  2  0  0  0  0  0  0  0  0  0
   11.3800  -11.2000    4.7430 O   0  0  0  0  0  0  0  0  0  0  0  0
   13.7470  -10.6450    4.6120 C   0  0  1  0  0  0  0  0  0  0  0  0
   14.1310  -12.0540    4.5860 O   0  0  0  0  0  0  0  0  0  0  0  0
   13.6590  -10.1730    3.1760 C   0  0  0  0  0  0  0  0  0  0  0  0
  1 11  1  6  0  0  0
  1  2  1  0  0  0  0
  1  8  1  0  0  0  0
  2  3  1  0  0  0  0
  3  4  1  0  0  0  0
  3 10  1  6  0  0  0
  4  5  1  6  0  0  0
  4  6  1  0  0  0  0
  6  8  1  0  0  0  0
  6  7  1  6  0  0  0
  8 18  1  1  0  0  0
  9 10  1  0  0  0  0
 11 12  1  0  0  0  0
 12 13  1  0  0  0  0
 13 14  1  0  0  0  0
 14 15  1  0  0  0  0
 15 17  1  0  0  0  0
 16 17  1  0  0  0  0
 19 18  1  1  0  0  0
 19 27  1  0  0  0  0
 19 20  1  0  0  0  0
 20 22  1  0  0  0  0
 20 21  1  1  0  0  0
 22 24  1  0  0  0  0
 22 23  1  1  0  0  0
 24 25  1  6  0  0  0
 24 26  1  0  0  0  0
 26 28  1  6  0  0  0
 26 27  1  0  0  0  0
M  END
>  <COMPND>
    UNNAMED

>  <AUTHOR>
    GENERATED BY OPEN BABEL 2.4.90

>  <MASTER>
        0    0    0    0    0    0    0    0   28    0   28    0

