__3u0y_A_rec_5c1l_da8_lig_min.pdb
 OpenBabel10181900073D

 27 28  0  0  1  0  0  0  0  0999 V2000
   17.8040  -10.8050    6.1600 C   0  0  2  0  0  0  0  0  0  0  0  0
   19.1160  -11.1770    5.7420 O   0  0  0  0  0  0  0  0  0  0  0  0
   19.6180  -12.1780    6.5590 C   0  0  1  0  0  0  0  0  0  0  0  0
   18.8100  -13.4640    6.3130 C   0  0  2  0  0  0  0  0  0  0  0  0
   18.8610  -13.9220    4.9400 O   0  0  0  0  0  0  0  0  0  0  0  0
   17.3500  -13.1710    6.6840 C   0  0  0  0  0  0  0  0  0  0  0  0
   16.8650  -11.9570    5.9040 C   0  0  1  0  0  0  0  0  0  0  0  0
   21.0980  -12.3780    6.2020 C   0  0  0  0  0  0  0  0  0  0  0  0
   21.8640  -11.3400    6.8620 O   0  0  0  0  0  0  0  0  0  0  0  0
   17.3790   -9.7770    5.3770 O   0  0  0  0  0  0  0  0  0  0  0  0
   18.2270   -8.5900    5.5510 C   0  0  0  0  0  0  0  0  0  0  0  0
   17.3490   -7.3630    5.7930 C   0  0  0  0  0  0  0  0  0  0  0  0
   16.4760   -7.4440    7.0440 C   0  0  0  0  0  0  0  0  0  0  0  0
   16.0920   -6.0620    7.6390 C   0  0  0  0  0  0  0  0  0  0  0  0
   14.6570   -4.8370    9.3540 C   0  0  0  0  0  0  0  0  0  0  0  0
   14.9330   -6.1680    8.6310 C   0  0  0  0  0  0  0  0  0  0  0  0
   15.5170  -11.6200    6.3330 O   0  0  0  0  0  0  0  0  0  0  0  0
   14.5080  -12.3730    5.6500 C   0  0  2  0  0  0  0  0  0  0  0  0
   14.7170  -12.3040    4.2660 O   0  0  0  0  0  0  0  0  0  0  0  0
   14.6450  -10.9560    3.6870 C   0  0  1  0  0  0  0  0  0  0  0  0
   14.9430  -11.0670    2.1940 C   0  0  0  0  0  0  0  0  0  0  0  0
   13.2790  -10.3530    4.0120 C   0  0  1  0  0  0  0  0  0  0  0  0
   12.2450  -11.0420    3.3080 O   0  0  0  0  0  0  0  0  0  0  0  0
   13.0530  -10.3870    5.5160 C   0  0  1  0  0  0  0  0  0  0  0  0
   11.7680   -9.8070    5.8160 O   0  0  0  0  0  0  0  0  0  0  0  0
   13.1420  -11.8160    6.0310 C   0  0  2  0  0  0  0  0  0  0  0  0
   13.0280  -11.8240    7.4530 O   0  0  0  0  0  0  0  0  0  0  0  0
  1 10  1  6  0  0  0
  1  2  1  0  0  0  0
  1  7  1  0  0  0  0
  2  3  1  0  0  0  0
  3  8  1  6  0  0  0
  3  4  1  0  0  0  0
  4  5  1  6  0  0  0
  4  6  1  0  0  0  0
  6  7  1  0  0  0  0
  7 17  1  1  0  0  0
  8  9  1  0  0  0  0
 10 11  1  0  0  0  0
 11 12  1  0  0  0  0
 12 13  1  0  0  0  0
 13 14  1  0  0  0  0
 14 16  1  0  0  0  0
 15 16  1  0  0  0  0
 18 17  1  1  0  0  0
 18 19  1  0  0  0  0
 18 26  1  0  0  0  0
 19 20  1  0  0  0  0
 20 21  1  6  0  0  0
 20 22  1  0  0  0  0
 22 23  1  6  0  0  0
 22 24  1  0  0  0  0
 24 26  1  0  0  0  0
 24 25  1  6  0  0  0
 26 27  1  1  0  0  0
M  END
>  <COMPND>
    UNNAMED

>  <AUTHOR>
    GENERATED BY OPEN BABEL 2.4.90

>  <MASTER>
        0    0    0    0    0    0    0    0   27    0   27    0

