__3u0y_A_rec_5c1g_gdu_lig_docked.pdb
 OpenBabel10181918033D

 36 38  0  0  1  0  0  0  0  0999 V2000
   12.2730  -17.8040    6.5770 P   0  0  2  0  0  0  0  0  0  0  0  0
   13.2530  -17.8260    7.7200 O   0  0  0  0  0  0  0  0  0  0  0  0
   10.7730  -17.8900    6.8630 O   0  0  0  0  0  0  0  0  0  0  0  0
   12.6620  -19.0110    5.6120 O   0  0  0  0  0  0  0  0  0  0  0  0
   12.9340  -20.3150    6.1300 C   0  0  0  0  0  0  0  0  0  0  0  0
   10.7350  -23.1230    6.4250 C   0  0  1  0  0  0  0  0  0  0  0  0
    9.8120  -22.2910    5.5380 C   0  0  2  0  0  0  0  0  0  0  0  0
    9.8470  -22.7220    4.1720 O   0  0  0  0  0  0  0  0  0  0  0  0
   10.4590  -20.9410    5.6290 C   0  0  1  0  0  0  0  0  0  0  0  0
   11.9380  -21.3310    5.5940 C   0  0  2  0  0  0  0  0  0  0  0  0
   12.0340  -22.5230    6.3830 O   0  0  0  0  0  0  0  0  0  0  0  0
   10.0800  -20.0530    4.5530 O   0  0  0  0  0  0  0  0  0  0  0  0
   10.2640  -23.1630    7.8050 N   0  0  0  0  0  0  0  0  0  0  0  0
    9.0730  -23.8750    8.0540 C   0  0  0  0  0  0  0  0  0  0  0  0
    8.5960  -23.9560    9.3110 N   0  0  0  0  0  0  0  0  0  0  0  0
    9.2410  -23.4040   10.3530 C   0  0  0  0  0  0  0  0  0  0  0  0
   10.4180  -22.7030   10.1400 C   0  0  0  0  0  0  0  0  0  0  0  0
   10.9250  -22.5980    8.8430 C   0  0  0  0  0  0  0  0  0  0  0  0
    8.4380  -24.4180    7.1190 O   0  0  0  0  0  0  0  0  0  0  0  0
    8.7560  -23.5300   11.5180 O   0  0  0  0  0  0  0  0  0  0  0  0
   12.6700  -16.5120    5.7050 O   0  0  0  0  0  0  0  0  0  0  0  0
   13.8800  -15.4700    5.9040 P   0  0  2  0  0  0  0  0  0  0  0  0
   13.7360  -14.8350    7.2800 O   0  0  0  0  0  0  0  0  0  0  0  0
   14.0260  -14.5930    4.6660 O   0  0  0  0  0  0  0  0  0  0  0  0
   14.9690  -16.5810    5.8830 O   0  0  0  0  0  0  0  0  0  0  0  0
   16.3450  -16.5000    5.6380 C   0  0  2  0  0  0  0  0  0  0  0  0
   16.5230  -17.2150    4.3030 C   0  0  1  0  0  0  0  0  0  0  0  0
   15.8630  -18.5670    4.4670 C   0  0  2  0  0  0  0  0  0  0  0  0
   16.5530  -19.3610    5.5730 C   0  0  2  0  0  0  0  0  0  0  0  0
   16.6000  -18.5960    6.8900 C   0  0  2  0  0  0  0  0  0  0  0  0
   15.8700  -16.5180    3.2290 O   0  0  0  0  0  0  0  0  0  0  0  0
   15.8510  -19.2970    3.2540 O   0  0  0  0  0  0  0  0  0  0  0  0
   17.8870  -19.7290    5.1880 O   0  0  0  0  0  0  0  0  0  0  0  0
   16.9740  -17.2090    6.7120 O   0  0  0  0  0  0  0  0  0  0  0  0
   17.5360  -19.2910    7.8780 C   0  0  0  0  0  0  0  0  0  0  0  0
   18.8100  -18.6430    7.9050 O   0  0  0  0  0  0  0  0  0  0  0  0
  1  3  2  1  0  0  0
  1  4  1  0  0  0  0
  1 21  1  0  0  0  0
  1  2  1  0  0  0  0
  4  5  1  0  0  0  0
  6  7  1  0  0  0  0
  6 11  1  0  0  0  0
  6 13  1  1  0  0  0
  7  8  1  6  0  0  0
  7  9  1  0  0  0  0
  9 12  1  6  0  0  0
  9 10  1  0  0  0  0
 10  5  1  1  0  0  0
 10 11  1  0  0  0  0
 13 14  1  0  0  0  0
 13 18  1  0  0  0  0
 14 19  2  0  0  0  0
 14 15  1  0  0  0  0
 15 16  1  0  0  0  0
 16 17  1  0  0  0  0
 16 20  2  0  0  0  0
 17 18  2  0  0  0  0
 21 22  1  0  0  0  0
 22 24  2  6  0  0  0
 22 25  1  0  0  0  0
 22 23  1  0  0  0  0
 26 25  1  1  0  0  0
 26 27  1  0  0  0  0
 26 34  1  0  0  0  0
 27 31  1  6  0  0  0
 27 28  1  0  0  0  0
 28 32  1  6  0  0  0
 28 29  1  0  0  0  0
 29 33  1  6  0  0  0
 29 30  1  0  0  0  0
 30 34  1  0  0  0  0
 30 35  1  1  0  0  0
 35 36  1  0  0  0  0
M  END
>  <MODEL>
       1

>  <COMPND>
    UNNAMED

>  <AUTHOR>
    GENERATED BY OPEN BABEL 2.4.90

>  <MASTER>
        0    0    0    0    0    0    0    0   36    0   36    0

