__3u0y_A_rec_1zj2_dr3_lig_min.pdb
 OpenBabel10181904563D

 36 38  0  0  1  0  0  0  0  0999 V2000
   16.7280  -12.1130    6.0750 C   0  0  2  0  0  0  0  0  0  0  0  0
   17.3310  -13.3670    6.7130 C   0  0  1  0  0  0  0  0  0  0  0  0
   16.5900  -14.5180    6.2990 O   0  0  0  0  0  0  0  0  0  0  0  0
   18.7950  -13.5310    6.2980 C   0  0  1  0  0  0  0  0  0  0  0  0
   18.8690  -13.7850    4.8940 O   0  0  0  0  0  0  0  0  0  0  0  0
   19.5730  -12.2550    6.6340 C   0  0  2  0  0  0  0  0  0  0  0  0
   18.9420  -11.1270    6.0050 O   0  0  0  0  0  0  0  0  0  0  0  0
   17.5980  -10.9300    6.4760 C   0  0  1  0  0  0  0  0  0  0  0  0
   21.0120  -12.3870    6.1310 C   0  0  0  0  0  0  0  0  0  0  0  0
   21.8410  -11.4200    6.7820 O   0  0  0  0  0  0  0  0  0  0  0  0
   15.3950  -11.8850    6.5590 O   0  0  0  0  0  0  0  0  0  0  0  0
   12.7390  -12.0410    7.4390 O   0  0  0  0  0  0  0  0  0  0  0  0
   13.0320  -11.9080    6.0460 C   0  0  1  0  0  0  0  0  0  0  0  0
   12.9870  -10.4310    5.6420 C   0  0  2  0  0  0  0  0  0  0  0  0
   11.6620   -9.9230    5.8200 O   0  0  0  0  0  0  0  0  0  0  0  0
   13.4060  -10.2710    4.1790 C   0  0  2  0  0  0  0  0  0  0  0  0
   12.4280  -10.8760    3.3290 O   0  0  0  0  0  0  0  0  0  0  0  0
   14.7700  -10.9330    3.9610 C   0  0  2  0  0  0  0  0  0  0  0  0
   15.1850  -10.8060    2.4940 C   0  0  0  0  0  0  0  0  0  0  0  0
   14.7100  -12.3190    4.3380 O   0  0  0  0  0  0  0  0  0  0  0  0
   14.4030  -12.5130    5.7300 C   0  0  1  0  0  0  0  0  0  0  0  0
   17.0390   -9.7470    5.8850 O   0  0  0  0  0  0  0  0  0  0  0  0
   17.6800   -8.5690    6.3960 C   0  0  1  0  0  0  0  0  0  0  0  0
   18.1250   -7.6660    5.2440 C   0  0  2  0  0  0  0  0  0  0  0  0
   19.1480   -8.3300    4.4960 O   0  0  0  0  0  0  0  0  0  0  0  0
   18.6670   -6.3360    5.7790 C   0  0  2  0  0  0  0  0  0  0  0  0
   17.6650   -5.6940    6.5850 O   0  0  0  0  0  0  0  0  0  0  0  0
   17.3290   -6.4710    7.7470 C   0  0  1  0  0  0  0  0  0  0  0  0
   16.3740   -5.7530    8.5330 O   0  0  0  0  0  0  0  0  0  0  0  0
   16.7220   -7.8100    7.3190 C   0  0  2  0  0  0  0  0  0  0  0  0
   16.4110   -8.6240    8.5050 N   0  0  0  0  0  0  0  0  0  0  0  0
   15.1930   -9.0720    8.8040 C   0  0  0  0  0  0  0  0  0  0  0  0
   14.0160   -8.2480    8.2730 C   0  0  0  0  0  0  0  0  0  0  0  0
   15.0230   -9.8180    9.9270 O   0  0  0  0  0  0  0  0  0  0  0  0
   19.0210   -5.4080    4.6160 C   0  0  0  0  0  0  0  0  0  0  0  0
   17.8520   -5.1540    3.8320 O   0  0  0  0  0  0  0  0  0  0  0  0
  1 11  1  1  0  0  0
  1  2  1  0  0  0  0
  1  8  1  0  0  0  0
  2  3  1  6  0  0  0
  2  4  1  0  0  0  0
  4  5  1  6  0  0  0
  4  6  1  0  0  0  0
  6  7  1  0  0  0  0
  6  9  1  6  0  0  0
  7  8  1  0  0  0  0
  8 22  1  6  0  0  0
  9 10  1  0  0  0  0
 13 12  1  1  0  0  0
 13 21  1  0  0  0  0
 13 14  1  0  0  0  0
 14 16  1  0  0  0  0
 14 15  1  6  0  0  0
 16 17  1  6  0  0  0
 16 18  1  0  0  0  0
 18 19  1  6  0  0  0
 18 20  1  0  0  0  0
 20 21  1  0  0  0  0
 21 11  1  1  0  0  0
 23 22  1  6  0  0  0
 23 24  1  0  0  0  0
 23 30  1  0  0  0  0
 24 25  1  1  0  0  0
 24 26  1  0  0  0  0
 26 35  1  6  0  0  0
 26 27  1  0  0  0  0
 27 28  1  0  0  0  0
 28 30  1  0  0  0  0
 28 29  1  1  0  0  0
 30 31  1  1  0  0  0
 31 32  1  0  0  0  0
 32 33  1  0  0  0  0
 32 34  2  0  0  0  0
 35 36  1  0  0  0  0
M  END
>  <COMPND>
    UNNAMED

>  <AUTHOR>
    GENERATED BY OPEN BABEL 2.4.90

>  <MASTER>
        0    0    0    0    0    0    0    0   36    0   36    0

