__3u0y_A_rec_1zi5_dr3_lig_min.pdb
 OpenBabel10181901543D

 36 38  0  0  1  0  0  0  0  0999 V2000
   16.7050  -12.0340    6.0900 C   0  0  2  0  0  0  0  0  0  0  0  0
   17.2700  -13.3240    6.6900 C   0  0  1  0  0  0  0  0  0  0  0  0
   16.4800  -14.4380    6.2690 O   0  0  0  0  0  0  0  0  0  0  0  0
   18.7230  -13.5310    6.2550 C   0  0  1  0  0  0  0  0  0  0  0  0
   18.7740  -13.7370    4.8400 O   0  0  0  0  0  0  0  0  0  0  0  0
   19.5440  -12.2930    6.6260 C   0  0  2  0  0  0  0  0  0  0  0  0
   18.9580  -11.1340    6.0130 O   0  0  0  0  0  0  0  0  0  0  0  0
   17.6220  -10.8870    6.4870 C   0  0  1  0  0  0  0  0  0  0  0  0
   20.9920  -12.4490    6.1520 C   0  0  0  0  0  0  0  0  0  0  0  0
   21.8050  -11.4500    6.7720 O   0  0  0  0  0  0  0  0  0  0  0  0
   15.3860  -11.7750    6.5990 O   0  0  0  0  0  0  0  0  0  0  0  0
   12.7180  -11.8570    7.4960 O   0  0  0  0  0  0  0  0  0  0  0  0
   13.0180  -11.8080    6.0990 C   0  0  1  0  0  0  0  0  0  0  0  0
   13.0020  -10.3580    5.6070 C   0  0  2  0  0  0  0  0  0  0  0  0
   11.6850   -9.8190    5.7470 O   0  0  0  0  0  0  0  0  0  0  0  0
   13.4310  -10.2920    4.1390 C   0  0  2  0  0  0  0  0  0  0  0  0
   12.4430  -10.9240    3.3230 O   0  0  0  0  0  0  0  0  0  0  0  0
   14.7800  -10.9950    3.9660 C   0  0  2  0  0  0  0  0  0  0  0  0
   15.2100  -10.9690    2.4980 C   0  0  0  0  0  0  0  0  0  0  0  0
   14.6890  -12.3550    4.4230 O   0  0  0  0  0  0  0  0  0  0  0  0
   14.3810  -12.4500    5.8260 C   0  0  1  0  0  0  0  0  0  0  0  0
   17.1240   -9.6770    5.8970 O   0  0  0  0  0  0  0  0  0  0  0  0
   17.7770   -8.5400    6.4770 C   0  0  1  0  0  0  0  0  0  0  0  0
   18.2610   -7.5730    5.3930 C   0  0  2  0  0  0  0  0  0  0  0  0
   19.2400   -8.2260    4.5790 O   0  0  0  0  0  0  0  0  0  0  0  0
   18.8730   -6.3240    6.0330 C   0  0  2  0  0  0  0  0  0  0  0  0
   17.9150   -5.6960    6.9020 O   0  0  0  0  0  0  0  0  0  0  0  0
   17.5280   -6.5500    7.9920 C   0  0  1  0  0  0  0  0  0  0  0  0
   16.6270   -5.8530    8.8550 O   0  0  0  0  0  0  0  0  0  0  0  0
   16.8430   -7.8050    7.4430 C   0  0  2  0  0  0  0  0  0  0  0  0
   16.4490   -8.6950    8.5460 N   0  0  0  0  0  0  0  0  0  0  0  0
   15.1970   -9.0900    8.7670 C   0  0  0  0  0  0  0  0  0  0  0  0
   14.0960   -8.1310    8.3070 C   0  0  0  0  0  0  0  0  0  0  0  0
   14.9440   -9.9210    9.8120 O   0  0  0  0  0  0  0  0  0  0  0  0
   19.2940   -5.3350    4.9450 C   0  0  0  0  0  0  0  0  0  0  0  0
   18.3530   -5.3730    3.8710 O   0  0  0  0  0  0  0  0  0  0  0  0
  1  8  1  0  0  0  0
  1 11  1  1  0  0  0
  1  2  1  0  0  0  0
  2  3  1  6  0  0  0
  2  4  1  0  0  0  0
  4  5  1  6  0  0  0
  4  6  1  0  0  0  0
  6  7  1  0  0  0  0
  6  9  1  6  0  0  0
  7  8  1  0  0  0  0
  8 22  1  6  0  0  0
  9 10  1  0  0  0  0
 13 12  1  1  0  0  0
 13 21  1  0  0  0  0
 13 14  1  0  0  0  0
 14 16  1  0  0  0  0
 14 15  1  6  0  0  0
 16 17  1  6  0  0  0
 16 18  1  0  0  0  0
 18 19  1  6  0  0  0
 18 20  1  0  0  0  0
 20 21  1  0  0  0  0
 21 11  1  1  0  0  0
 23 22  1  6  0  0  0
 23 24  1  0  0  0  0
 23 30  1  0  0  0  0
 24 25  1  1  0  0  0
 24 26  1  0  0  0  0
 26 35  1  6  0  0  0
 26 27  1  0  0  0  0
 27 28  1  0  0  0  0
 28 30  1  0  0  0  0
 28 29  1  1  0  0  0
 30 31  1  1  0  0  0
 31 32  1  0  0  0  0
 32 33  1  0  0  0  0
 32 34  2  0  0  0  0
 35 36  1  0  0  0  0
M  END
>  <COMPND>
    UNNAMED

>  <AUTHOR>
    GENERATED BY OPEN BABEL 2.4.90

>  <MASTER>
        0    0    0    0    0    0    0    0   36    0   36    0

