__3v0l_A_rec_5c4e_udp_lig_docked.pdb
 OpenBabel10181914343D

 25 26  0  0  1  0  0  0  0  0999 V2000
   10.2060  -23.1570    5.8860 C   0  0  1  0  0  0  0  0  0  0  0  0
    9.2940  -22.2460    5.0820 C   0  0  2  0  0  0  0  0  0  0  0  0
    9.3150  -22.5720    3.6960 O   0  0  0  0  0  0  0  0  0  0  0  0
   10.0030  -20.9290    5.2620 C   0  0  1  0  0  0  0  0  0  0  0  0
   11.4660  -21.3400    5.1650 C   0  0  2  0  0  0  0  0  0  0  0  0
   11.5240  -22.6070    5.8370 O   0  0  0  0  0  0  0  0  0  0  0  0
    9.5890  -19.9830    4.2550 O   0  0  0  0  0  0  0  0  0  0  0  0
    9.7820  -23.2420    7.2790 N   0  0  0  0  0  0  0  0  0  0  0  0
    8.9950  -24.3550    7.6130 C   0  0  0  0  0  0  0  0  0  0  0  0
    8.5890  -24.5370    8.8830 N   0  0  0  0  0  0  0  0  0  0  0  0
    8.9300  -23.6920    9.8750 C   0  0  0  0  0  0  0  0  0  0  0  0
    9.7240  -22.5820    9.5750 C   0  0  0  0  0  0  0  0  0  0  0  0
   10.1570  -22.3810    8.2580 C   0  0  0  0  0  0  0  0  0  0  0  0
    8.6790  -25.1530    6.7060 O   0  0  0  0  0  0  0  0  0  0  0  0
    8.5140  -23.9200   11.0540 O   0  0  0  0  0  0  0  0  0  0  0  0
   12.5050  -20.3930    5.7690 C   0  0  0  0  0  0  0  0  0  0  0  0
   11.8550  -19.2470    6.3240 O   0  0  0  0  0  0  0  0  0  0  0  0
   12.2900  -18.6120    7.7410 P   0  0  2  0  0  0  0  0  0  0  0  0
   13.7020  -19.1120    7.9960 O   0  0  0  0  0  0  0  0  0  0  0  0
   11.1660  -18.8630    8.7360 O   0  0  0  0  0  0  0  0  0  0  0  0
   12.3430  -17.0270    7.3800 O   0  0  0  0  0  0  0  0  0  0  0  0
   12.8990  -16.4030    5.9750 P   0  0  0  0  0  0  0  0  0  0  0  0
   14.0980  -17.2130    5.5310 O   0  0  0  0  0  0  0  0  0  0  0  0
   13.2610  -14.9320    6.1940 O   0  0  0  0  0  0  0  0  0  0  0  0
   11.7040  -16.6000    5.0580 O   0  0  0  0  0  0  0  0  0  0  0  0
  1  2  1  0  0  0  0
  1  6  1  0  0  0  0
  1  8  1  1  0  0  0
  2  3  1  6  0  0  0
  2  4  1  0  0  0  0
  4  7  1  6  0  0  0
  4  5  1  0  0  0  0
  5 16  1  1  0  0  0
  5  6  1  0  0  0  0
  8  9  1  0  0  0  0
  8 13  1  0  0  0  0
  9 14  2  0  0  0  0
  9 10  1  0  0  0  0
 10 11  1  0  0  0  0
 11 12  1  0  0  0  0
 11 15  2  0  0  0  0
 12 13  2  0  0  0  0
 16 17  1  0  0  0  0
 17 18  1  0  0  0  0
 18 20  2  1  0  0  0
 18 21  1  0  0  0  0
 18 19  1  0  0  0  0
 21 22  1  0  0  0  0
 22 24  2  0  0  0  0
 22 25  1  0  0  0  0
 22 23  1  0  0  0  0
M  END
>  <MODEL>
       2

>  <COMPND>
    UNNAMED

>  <AUTHOR>
    GENERATED BY OPEN BABEL 2.4.90

>  <MASTER>
        0    0    0    0    0    0    0    0   25    0   25    0

