__3v0l_A_rec_2rj1_udp_lig_min.pdb
 OpenBabel10181912183D

 25 26  0  0  1  0  0  0  0  0999 V2000
   10.1450  -23.1770    5.8710 C   0  0  1  0  0  0  0  0  0  0  0  0
    9.2460  -22.2320    5.0740 C   0  0  2  0  0  0  0  0  0  0  0  0
    9.3140  -22.5810    3.6850 O   0  0  0  0  0  0  0  0  0  0  0  0
    9.9670  -20.9160    5.2810 C   0  0  1  0  0  0  0  0  0  0  0  0
   11.4540  -21.3380    5.2010 C   0  0  2  0  0  0  0  0  0  0  0  0
   11.4880  -22.6170    5.8820 O   0  0  0  0  0  0  0  0  0  0  0  0
    9.6440  -19.9540    4.2610 O   0  0  0  0  0  0  0  0  0  0  0  0
    9.6630  -23.3290    7.2600 N   0  0  0  0  0  0  0  0  0  0  0  0
    8.7770  -24.3900    7.5110 C   0  0  0  0  0  0  0  0  0  0  0  0
    8.3150  -24.5850    8.8160 N   0  0  0  0  0  0  0  0  0  0  0  0
    8.7090  -23.7560    9.8540 C   0  0  0  0  0  0  0  0  0  0  0  0
    9.5980  -22.6960    9.6010 C   0  0  0  0  0  0  0  0  0  0  0  0
   10.0800  -22.4900    8.3040 C   0  0  0  0  0  0  0  0  0  0  0  0
    8.4210  -25.1240    6.5910 O   0  0  0  0  0  0  0  0  0  0  0  0
    8.2590  -23.9900   10.9810 O   0  0  0  0  0  0  0  0  0  0  0  0
   12.4370  -20.3520    5.8640 C   0  0  0  0  0  0  0  0  0  0  0  0
   11.8640  -19.8060    7.0280 O   0  0  0  0  0  0  0  0  0  0  0  0
   11.7900  -18.2170    7.1620 P   0  0  1  0  0  0  0  0  0  0  0  0
   10.9760  -17.6870    6.0460 O   0  0  0  0  0  0  0  0  0  0  0  0
   11.3970  -17.9230    8.5560 O   0  0  0  0  0  0  0  0  0  0  0  0
   13.3480  -17.8030    6.9880 O   0  0  0  0  0  0  0  0  0  0  0  0
   13.9390  -16.3170    6.8210 P   0  0  0  0  0  0  0  0  0  0  0  0
   13.2070  -15.3590    7.8910 O   0  0  0  0  0  0  0  0  0  0  0  0
   15.4090  -16.4590    7.0970 O   0  0  0  0  0  0  0  0  0  0  0  0
   13.7200  -15.8290    5.3300 O   0  0  0  0  0  0  0  0  0  0  0  0
  1  2  1  0  0  0  0
  1  6  1  0  0  0  0
  1  8  1  1  0  0  0
  2  3  1  6  0  0  0
  2  4  1  0  0  0  0
  4  7  1  6  0  0  0
  4  5  1  0  0  0  0
  5 16  1  1  0  0  0
  5  6  1  0  0  0  0
  8  9  1  0  0  0  0
  8 13  1  0  0  0  0
  9 14  2  0  0  0  0
  9 10  1  0  0  0  0
 10 11  1  0  0  0  0
 11 12  1  0  0  0  0
 11 15  2  0  0  0  0
 12 13  2  0  0  0  0
 16 17  1  0  0  0  0
 17 18  1  0  0  0  0
 18 19  2  6  0  0  0
 18 21  1  0  0  0  0
 18 20  1  0  0  0  0
 21 22  1  0  0  0  0
 22 25  2  0  0  0  0
 22 24  1  0  0  0  0
 22 23  1  0  0  0  0
M  END
>  <COMPND>
    UNNAMED

>  <AUTHOR>
    GENERATED BY OPEN BABEL 2.4.90

>  <MASTER>
        0    0    0    0    0    0    0    0   25    0   25    0

