__3v0l_A_rec_1zjp_udp_lig_min.pdb
 OpenBabel10181904043D

 25 26  0  0  1  0  0  0  0  0999 V2000
   10.1460  -23.2620    5.8530 C   0  0  1  0  0  0  0  0  0  0  0  0
    9.2860  -22.2910    5.0400 C   0  0  2  0  0  0  0  0  0  0  0  0
    9.4150  -22.5820    3.6460 O   0  0  0  0  0  0  0  0  0  0  0  0
    9.9710  -20.9640    5.3600 C   0  0  1  0  0  0  0  0  0  0  0  0
   11.4110  -21.4420    5.1710 C   0  0  2  0  0  0  0  0  0  0  0  0
   11.4580  -22.6680    5.9190 O   0  0  0  0  0  0  0  0  0  0  0  0
    9.6500  -20.0090    4.3460 O   0  0  0  0  0  0  0  0  0  0  0  0
    9.6230  -23.4020    7.2330 N   0  0  0  0  0  0  0  0  0  0  0  0
    8.7360  -24.4430    7.5410 C   0  0  0  0  0  0  0  0  0  0  0  0
    8.2870  -24.5930    8.8600 N   0  0  0  0  0  0  0  0  0  0  0  0
    8.7200  -23.7120    9.8600 C   0  0  0  0  0  0  0  0  0  0  0  0
    9.5980  -22.6770    9.5510 C   0  0  0  0  0  0  0  0  0  0  0  0
   10.0440  -22.5260    8.2420 C   0  0  0  0  0  0  0  0  0  0  0  0
    8.3430  -25.2130    6.6650 O   0  0  0  0  0  0  0  0  0  0  0  0
    8.3200  -23.8520   11.0150 O   0  0  0  0  0  0  0  0  0  0  0  0
   12.4700  -20.4300    5.6110 C   0  0  0  0  0  0  0  0  0  0  0  0
   12.1540  -19.8410    6.8750 O   0  0  0  0  0  0  0  0  0  0  0  0
   11.9180  -18.2540    7.0080 P   0  0  1  0  0  0  0  0  0  0  0  0
   11.4180  -17.7320    5.5690 O   0  0  0  0  0  0  0  0  0  0  0  0
   10.9650  -17.8950    8.0830 O   0  0  0  0  0  0  0  0  0  0  0  0
   13.3700  -17.6010    7.2530 O   0  0  0  0  0  0  0  0  0  0  0  0
   13.9470  -16.4410    6.2950 P   0  0  0  0  0  0  0  0  0  0  0  0
   14.2870  -17.4490    5.0840 O   0  0  0  0  0  0  0  0  0  0  0  0
   15.2260  -16.1570    7.2300 O   0  0  0  0  0  0  0  0  0  0  0  0
   12.7790  -15.5320    6.2640 O   0  0  0  0  0  0  0  0  0  0  0  0
  1  2  1  0  0  0  0
  1  6  1  0  0  0  0
  1  8  1  1  0  0  0
  2  3  1  6  0  0  0
  2  4  1  0  0  0  0
  4  7  1  6  0  0  0
  4  5  1  0  0  0  0
  5 16  1  1  0  0  0
  5  6  1  0  0  0  0
  8  9  1  0  0  0  0
  8 13  1  0  0  0  0
  9 14  2  0  0  0  0
  9 10  1  0  0  0  0
 10 11  1  0  0  0  0
 11 12  1  0  0  0  0
 11 15  2  0  0  0  0
 12 13  2  0  0  0  0
 16 17  1  0  0  0  0
 17 18  1  0  0  0  0
 18 19  2  6  0  0  0
 18 21  1  0  0  0  0
 18 20  1  0  0  0  0
 21 22  1  0  0  0  0
 22 23  2  0  0  0  0
 22 25  1  0  0  0  0
 22 24  1  0  0  0  0
M  END
>  <COMPND>
    UNNAMED

>  <AUTHOR>
    GENERATED BY OPEN BABEL 2.4.90

>  <MASTER>
        0    0    0    0    0    0    0    0   25    0   25    0

