__3v0l_A_rec_1zj2_dr3_lig_min.pdb
 OpenBabel10181910283D

 36 38  0  0  1  0  0  0  0  0999 V2000
   16.5350  -12.1420    5.8520 C   0  0  2  0  0  0  0  0  0  0  0  0
   17.2080  -13.4020    6.4030 C   0  0  1  0  0  0  0  0  0  0  0  0
   16.4860  -14.5570    5.9690 O   0  0  0  0  0  0  0  0  0  0  0  0
   18.6550  -13.4960    5.9150 C   0  0  1  0  0  0  0  0  0  0  0  0
   18.6720  -13.6840    4.4990 O   0  0  0  0  0  0  0  0  0  0  0  0
   19.4060  -12.2110    6.2750 C   0  0  2  0  0  0  0  0  0  0  0  0
   18.7110  -11.0780    5.7280 O   0  0  0  0  0  0  0  0  0  0  0  0
   17.3850  -10.9480    6.2680 C   0  0  1  0  0  0  0  0  0  0  0  0
   20.8250  -12.2710    5.7020 C   0  0  0  0  0  0  0  0  0  0  0  0
   21.7140  -11.5280    6.5400 O   0  0  0  0  0  0  0  0  0  0  0  0
   15.2200  -11.9810    6.4060 O   0  0  0  0  0  0  0  0  0  0  0  0
   13.0170  -13.1120    7.7180 O   0  0  0  0  0  0  0  0  0  0  0  0
   12.8840  -12.6070    6.3870 C   0  0  1  0  0  0  0  0  0  0  0  0
   12.3770  -11.1630    6.4240 C   0  0  2  0  0  0  0  0  0  0  0  0
   11.0660  -11.1260    6.9950 O   0  0  0  0  0  0  0  0  0  0  0  0
   12.3370  -10.5800    5.0090 C   0  0  2  0  0  0  0  0  0  0  0  0
   11.3430  -11.2600    4.2370 O   0  0  0  0  0  0  0  0  0  0  0  0
   13.7100  -10.7390    4.3510 C   0  0  2  0  0  0  0  0  0  0  0  0
   13.6740  -10.1890    2.9230 C   0  0  0  0  0  0  0  0  0  0  0  0
   14.0900  -12.1260    4.3340 O   0  0  0  0  0  0  0  0  0  0  0  0
   14.2240  -12.6910    5.6500 C   0  0  1  0  0  0  0  0  0  0  0  0
   16.7610   -9.7600    5.7600 O   0  0  0  0  0  0  0  0  0  0  0  0
   17.3480   -8.5860    6.3400 C   0  0  1  0  0  0  0  0  0  0  0  0
   17.7670   -7.6050    5.2430 C   0  0  2  0  0  0  0  0  0  0  0  0
   18.8230   -8.1860    4.4720 O   0  0  0  0  0  0  0  0  0  0  0  0
   18.2480   -6.2850    5.8560 C   0  0  2  0  0  0  0  0  0  0  0  0
   17.2120   -5.7290    6.6830 O   0  0  0  0  0  0  0  0  0  0  0  0
   16.8980   -6.5800    7.7970 C   0  0  1  0  0  0  0  0  0  0  0  0
   15.9080   -5.9450    8.6100 O   0  0  0  0  0  0  0  0  0  0  0  0
   16.3520   -7.9180    7.2910 C   0  0  2  0  0  0  0  0  0  0  0  0
   16.0640   -8.8060    8.4280 N   0  0  0  0  0  0  0  0  0  0  0  0
   14.8560   -9.2930    8.7080 C   0  0  0  0  0  0  0  0  0  0  0  0
   13.6610   -8.4600    8.2340 C   0  0  0  0  0  0  0  0  0  0  0  0
   14.7070  -10.1090    9.7850 O   0  0  0  0  0  0  0  0  0  0  0  0
   18.5740   -5.2820    4.7470 C   0  0  0  0  0  0  0  0  0  0  0  0
   17.6440   -5.4350    3.6720 O   0  0  0  0  0  0  0  0  0  0  0  0
  1 11  1  1  0  0  0
  1  2  1  0  0  0  0
  1  8  1  0  0  0  0
  2  3  1  6  0  0  0
  2  4  1  0  0  0  0
  4  5  1  6  0  0  0
  4  6  1  0  0  0  0
  6  7  1  0  0  0  0
  6  9  1  6  0  0  0
  7  8  1  0  0  0  0
  8 22  1  6  0  0  0
  9 10  1  0  0  0  0
 13 12  1  1  0  0  0
 13 21  1  0  0  0  0
 13 14  1  0  0  0  0
 14 16  1  0  0  0  0
 14 15  1  6  0  0  0
 16 17  1  6  0  0  0
 16 18  1  0  0  0  0
 18 19  1  6  0  0  0
 18 20  1  0  0  0  0
 20 21  1  0  0  0  0
 21 11  1  1  0  0  0
 23 22  1  6  0  0  0
 23 24  1  0  0  0  0
 23 30  1  0  0  0  0
 24 25  1  1  0  0  0
 24 26  1  0  0  0  0
 26 35  1  6  0  0  0
 26 27  1  0  0  0  0
 27 28  1  0  0  0  0
 28 30  1  0  0  0  0
 28 29  1  1  0  0  0
 30 31  1  1  0  0  0
 31 32  1  0  0  0  0
 32 33  1  0  0  0  0
 32 34  2  0  0  0  0
 35 36  1  0  0  0  0
M  END
>  <COMPND>
    UNNAMED

>  <AUTHOR>
    GENERATED BY OPEN BABEL 2.4.90

>  <MASTER>
        0    0    0    0    0    0    0    0   36    0   36    0

