__3v0l_A_rec_2o1h_udp_lig_min.pdb
 OpenBabel10181902573D

 25 26  0  0  1  0  0  0  0  0999 V2000
   10.2150  -23.1570    5.7970 C   0  0  1  0  0  0  0  0  0  0  0  0
    9.2350  -22.3410    4.9630 C   0  0  2  0  0  0  0  0  0  0  0  0
    9.3990  -22.5880    3.5850 O   0  0  0  0  0  0  0  0  0  0  0  0
    9.7820  -20.9630    5.1660 C   0  0  1  0  0  0  0  0  0  0  0  0
   11.2960  -21.1950    5.1520 C   0  0  2  0  0  0  0  0  0  0  0  0
   11.4560  -22.4630    5.7660 O   0  0  0  0  0  0  0  0  0  0  0  0
    9.2840  -20.1870    4.0940 O   0  0  0  0  0  0  0  0  0  0  0  0
    9.7150  -23.2970    7.1860 N   0  0  0  0  0  0  0  0  0  0  0  0
    8.7730  -24.2910    7.4610 C   0  0  0  0  0  0  0  0  0  0  0  0
    8.3110  -24.4270    8.7920 N   0  0  0  0  0  0  0  0  0  0  0  0
    8.7770  -23.5950    9.8350 C   0  0  0  0  0  0  0  0  0  0  0  0
    9.7180  -22.5980    9.5190 C   0  0  0  0  0  0  0  0  0  0  0  0
   10.0090  -22.3650    8.1620 C   0  0  0  0  0  0  0  0  0  0  0  0
    8.3660  -25.0460    6.5510 O   0  0  0  0  0  0  0  0  0  0  0  0
    8.3550  -23.7110   11.0160 O   0  0  0  0  0  0  0  0  0  0  0  0
   12.1930  -20.2350    5.9290 C   0  0  0  0  0  0  0  0  0  0  0  0
   11.4380  -19.4880    6.8420 O   0  0  0  0  0  0  0  0  0  0  0  0
   11.6270  -17.8930    6.8860 P   0  0  1  0  0  0  0  0  0  0  0  0
   11.5520  -17.3110    5.5000 O   0  0  0  0  0  0  0  0  0  0  0  0
   10.6100  -17.1550    7.7020 O   0  0  0  0  0  0  0  0  0  0  0  0
   13.0910  -17.7770    7.5640 O   0  0  0  0  0  0  0  0  0  0  0  0
   13.9660  -16.4070    7.6380 P   0  0  0  0  0  0  0  0  0  0  0  0
   13.1720  -15.1570    7.6240 O   0  0  0  0  0  0  0  0  0  0  0  0
   14.6630  -16.4300    8.9550 O   0  0  0  0  0  0  0  0  0  0  0  0
   14.9170  -16.4450    6.4780 O   0  0  0  0  0  0  0  0  0  0  0  0
  1  2  1  0  0  0  0
  1  6  1  0  0  0  0
  1  8  1  1  0  0  0
  2  3  1  6  0  0  0
  2  4  1  0  0  0  0
  4  7  1  6  0  0  0
  4  5  1  0  0  0  0
  5  6  1  0  0  0  0
  5 16  1  1  0  0  0
  8  9  1  0  0  0  0
  8 13  1  0  0  0  0
  9 14  2  0  0  0  0
  9 10  1  0  0  0  0
 10 11  1  0  0  0  0
 11 12  1  0  0  0  0
 11 15  2  0  0  0  0
 12 13  1  0  0  0  0
 16 17  1  0  0  0  0
 17 18  1  0  0  0  0
 18 19  2  6  0  0  0
 18 21  1  0  0  0  0
 18 20  1  0  0  0  0
 21 22  1  0  0  0  0
 22 23  2  0  0  0  0
 22 25  1  0  0  0  0
 22 24  1  0  0  0  0
M  END
>  <COMPND>
    UNNAMED

>  <AUTHOR>
    GENERATED BY OPEN BABEL 2.4.90

>  <MASTER>
        0    0    0    0    0    0    0    0   25    0   25    0

