__3v0l_A_rec_3v0q_udp_lig_min.pdb
 OpenBabel10181912563D

 25 26  0  0  1  0  0  0  0  0999 V2000
   10.1720  -23.1120    5.9150 C   0  0  1  0  0  0  0  0  0  0  0  0
    9.2680  -22.1660    5.1480 C   0  0  2  0  0  0  0  0  0  0  0  0
    9.2890  -22.5470    3.7870 O   0  0  0  0  0  0  0  0  0  0  0  0
    9.9890  -20.8520    5.3030 C   0  0  1  0  0  0  0  0  0  0  0  0
   11.4380  -21.2960    5.2390 C   0  0  2  0  0  0  0  0  0  0  0  0
   11.4700  -22.5510    5.8960 O   0  0  0  0  0  0  0  0  0  0  0  0
    9.6380  -19.9660    4.2630 O   0  0  0  0  0  0  0  0  0  0  0  0
    9.6870  -23.3300    7.3020 N   0  0  0  0  0  0  0  0  0  0  0  0
    8.8130  -24.3820    7.5080 C   0  0  0  0  0  0  0  0  0  0  0  0
    8.3270  -24.6580    8.7750 N   0  0  0  0  0  0  0  0  0  0  0  0
    8.7190  -23.8800    9.8530 C   0  0  0  0  0  0  0  0  0  0  0  0
    9.6060  -22.8160    9.6460 C   0  0  0  0  0  0  0  0  0  0  0  0
   10.0020  -22.4880    8.3380 C   0  0  0  0  0  0  0  0  0  0  0  0
    8.4550  -25.0680    6.5540 O   0  0  0  0  0  0  0  0  0  0  0  0
    8.2710  -24.1520   10.9740 O   0  0  0  0  0  0  0  0  0  0  0  0
   12.3940  -20.3110    5.9000 C   0  0  0  0  0  0  0  0  0  0  0  0
   11.6750  -19.6250    6.8980 O   0  0  0  0  0  0  0  0  0  0  0  0
   11.7290  -18.0340    6.8810 P   0  0  2  0  0  0  0  0  0  0  0  0
   10.8410  -17.4580    7.9130 O   0  0  0  0  0  0  0  0  0  0  0  0
   11.4130  -17.5790    5.5060 O   0  0  0  0  0  0  0  0  0  0  0  0
   13.2580  -17.7400    7.2050 O   0  0  0  0  0  0  0  0  0  0  0  0
   14.2560  -16.9320    6.2270 P   0  0  0  0  0  0  0  0  0  0  0  0
   13.6140  -15.6940    5.7230 O   0  0  0  0  0  0  0  0  0  0  0  0
   14.7220  -17.7390    5.0700 O   0  0  0  0  0  0  0  0  0  0  0  0
   15.3990  -16.5630    7.0930 O   0  0  0  0  0  0  0  0  0  0  0  0
  1  2  1  0  0  0  0
  1  6  1  0  0  0  0
  1  8  1  1  0  0  0
  2  3  1  6  0  0  0
  2  4  1  0  0  0  0
  4  7  1  6  0  0  0
  4  5  1  0  0  0  0
  5 16  1  1  0  0  0
  5  6  1  0  0  0  0
  8  9  1  0  0  0  0
  8 13  1  0  0  0  0
  9 14  2  0  0  0  0
  9 10  1  0  0  0  0
 10 11  1  0  0  0  0
 11 12  1  0  0  0  0
 11 15  2  0  0  0  0
 12 13  2  0  0  0  0
 16 17  1  0  0  0  0
 17 18  1  0  0  0  0
 18 20  2  6  0  0  0
 18 21  1  0  0  0  0
 18 19  1  0  0  0  0
 21 22  1  0  0  0  0
 22 24  2  0  0  0  0
 22 25  1  0  0  0  0
 22 23  1  0  0  0  0
M  END
>  <COMPND>
    UNNAMED

>  <AUTHOR>
    GENERATED BY OPEN BABEL 2.4.90

>  <MASTER>
        0    0    0    0    0    0    0    0   25    0   25    0

