__3v0l_A_rec_2rj0_udp_lig_docked.pdb
 OpenBabel10181914223D

 25 26  0  0  1  0  0  0  0  0999 V2000
   10.2010  -23.1550    5.8860 C   0  0  1  0  0  0  0  0  0  0  0  0
    9.2740  -22.1940    5.1220 C   0  0  2  0  0  0  0  0  0  0  0  0
    9.2490  -22.5170    3.7200 O   0  0  0  0  0  0  0  0  0  0  0  0
    9.9970  -20.8930    5.3020 C   0  0  1  0  0  0  0  0  0  0  0  0
   11.4560  -21.3360    5.1390 C   0  0  2  0  0  0  0  0  0  0  0  0
   11.5370  -22.5940    5.8430 O   0  0  0  0  0  0  0  0  0  0  0  0
    9.6470  -20.0290    4.2120 O   0  0  0  0  0  0  0  0  0  0  0  0
    9.7660  -23.3080    7.3010 N   0  0  0  0  0  0  0  0  0  0  0  0
    8.9720  -24.4160    7.6350 C   0  0  0  0  0  0  0  0  0  0  0  0
    8.5520  -24.6070    8.9480 N   0  0  0  0  0  0  0  0  0  0  0  0
    8.9110  -23.7030    9.9410 C   0  0  0  0  0  0  0  0  0  0  0  0
    9.7010  -22.5950    9.6270 C   0  0  0  0  0  0  0  0  0  0  0  0
   10.1350  -22.3920    8.3130 C   0  0  0  0  0  0  0  0  0  0  0  0
    8.6330  -25.2180    6.7780 O   0  0  0  0  0  0  0  0  0  0  0  0
    8.5150  -23.9120   11.0910 O   0  0  0  0  0  0  0  0  0  0  0  0
   12.5470  -20.4240    5.7060 C   0  0  0  0  0  0  0  0  0  0  0  0
   12.0320  -19.2000    6.0380 O   0  0  0  0  0  0  0  0  0  0  0  0
   12.2870  -18.6040    7.5140 P   0  0  1  0  0  0  0  0  0  0  0  0
   11.1300  -18.9670    8.4000 O   0  0  0  0  0  0  0  0  0  0  0  0
   13.6630  -18.9600    7.9030 O   0  0  0  0  0  0  0  0  0  0  0  0
   12.2490  -17.0360    7.2050 O   0  0  0  0  0  0  0  0  0  0  0  0
   13.0170  -16.3360    5.9810 P   0  0  0  0  0  0  0  0  0  0  0  0
   13.5020  -14.8480    6.3940 O   0  0  0  0  0  0  0  0  0  0  0  0
   14.0940  -17.2230    5.4790 O   0  0  0  0  0  0  0  0  0  0  0  0
   11.9390  -16.1130    4.8690 O   0  0  0  0  0  0  0  0  0  0  0  0
  1  2  1  0  0  0  0
  1  6  1  0  0  0  0
  1  8  1  1  0  0  0
  2  3  1  6  0  0  0
  2  4  1  0  0  0  0
  4  7  1  6  0  0  0
  4  5  1  0  0  0  0
  5 16  1  1  0  0  0
  5  6  1  0  0  0  0
  8  9  1  0  0  0  0
  8 13  1  0  0  0  0
  9 14  2  0  0  0  0
  9 10  1  0  0  0  0
 10 11  1  0  0  0  0
 11 12  1  0  0  0  0
 11 15  2  0  0  0  0
 12 13  2  0  0  0  0
 16 17  1  0  0  0  0
 17 18  1  0  0  0  0
 18 19  2  1  0  0  0
 18 21  1  0  0  0  0
 18 20  1  0  0  0  0
 21 22  1  0  0  0  0
 22 25  2  0  0  0  0
 22 24  1  0  0  0  0
 22 23  1  0  0  0  0
M  END
>  <MODEL>
       2

>  <COMPND>
    UNNAMED

>  <AUTHOR>
    GENERATED BY OPEN BABEL 2.4.90

>  <MASTER>
        0    0    0    0    0    0    0    0   25    0   25    0

