__3v0l_A_rec_1lzj_udp_lig_min.pdb
 OpenBabel10181901023D

 25 26  0  0  1  0  0  0  0  0999 V2000
   10.1540  -23.1980    5.8230 C   0  0  1  0  0  0  0  0  0  0  0  0
    9.3060  -22.2040    4.9850 C   0  0  2  0  0  0  0  0  0  0  0  0
    9.2920  -22.5420    3.6040 O   0  0  0  0  0  0  0  0  0  0  0  0
   10.0180  -20.8980    5.2650 C   0  0  1  0  0  0  0  0  0  0  0  0
   11.4870  -21.3510    5.1500 C   0  0  2  0  0  0  0  0  0  0  0  0
   11.4870  -22.6660    5.7900 O   0  0  0  0  0  0  0  0  0  0  0  0
    9.6450  -19.9810    4.2240 O   0  0  0  0  0  0  0  0  0  0  0  0
    9.6910  -23.3510    7.2370 N   0  0  0  0  0  0  0  0  0  0  0  0
    8.7920  -24.3880    7.5140 C   0  0  0  0  0  0  0  0  0  0  0  0
    8.3510  -24.5400    8.8340 N   0  0  0  0  0  0  0  0  0  0  0  0
    8.6900  -23.7690    9.9710 C   0  0  0  0  0  0  0  0  0  0  0  0
    9.6930  -22.5910    9.7060 C   0  0  0  0  0  0  0  0  0  0  0  0
   10.1350  -22.4780    8.2620 C   0  0  0  0  0  0  0  0  0  0  0  0
    8.3990  -25.1520    6.6100 O   0  0  0  0  0  0  0  0  0  0  0  0
    8.1820  -24.0730   11.0540 O   0  0  0  0  0  0  0  0  0  0  0  0
   12.5480  -20.4960    5.9020 C   0  0  0  0  0  0  0  0  0  0  0  0
   11.8790  -19.6000    6.7690 O   0  0  0  0  0  0  0  0  0  0  0  0
   11.8700  -18.0340    6.8340 P   0  0  1  0  0  0  0  0  0  0  0  0
   11.3600  -17.5280    5.5140 O   0  0  0  0  0  0  0  0  0  0  0  0
   11.1210  -17.6430    8.0860 O   0  0  0  0  0  0  0  0  0  0  0  0
   13.4280  -17.7270    6.9510 O   0  0  0  0  0  0  0  0  0  0  0  0
   14.1910  -16.3320    6.7980 P   0  0  0  0  0  0  0  0  0  0  0  0
   15.6630  -16.6130    7.3590 O   0  0  0  0  0  0  0  0  0  0  0  0
   13.4150  -15.4110    7.6660 O   0  0  0  0  0  0  0  0  0  0  0  0
   14.3760  -15.9860    5.3440 O   0  0  0  0  0  0  0  0  0  0  0  0
  1  2  1  0  0  0  0
  1  6  1  0  0  0  0
  1  8  1  1  0  0  0
  2  3  1  6  0  0  0
  2  4  1  0  0  0  0
  4  7  1  6  0  0  0
  4  5  1  0  0  0  0
  5 16  1  1  0  0  0
  5  6  1  0  0  0  0
  8  9  1  0  0  0  0
  8 13  1  0  0  0  0
  9 14  2  0  0  0  0
  9 10  1  0  0  0  0
 10 11  1  0  0  0  0
 11 12  1  0  0  0  0
 11 15  2  0  0  0  0
 12 13  2  0  0  0  0
 16 17  1  0  0  0  0
 17 18  1  0  0  0  0
 18 19  2  6  0  0  0
 18 21  1  0  0  0  0
 18 20  1  0  0  0  0
 21 22  1  0  0  0  0
 22 25  2  0  0  0  0
 22 23  1  0  0  0  0
 22 24  1  0  0  0  0
M  END
>  <COMPND>
    UNNAMED

>  <AUTHOR>
    GENERATED BY OPEN BABEL 2.4.90

>  <MASTER>
        0    0    0    0    0    0    0    0   25    0   25    0

