__3v0l_A_rec_2rj4_udp_lig_docked.pdb
 OpenBabel10181914193D

 25 26  0  0  1  0  0  0  0  0999 V2000
   10.2550  -23.1230    5.8170 C   0  0  1  0  0  0  0  0  0  0  0  0
    9.2610  -22.3350    4.9670 C   0  0  2  0  0  0  0  0  0  0  0  0
    9.4670  -22.6860    3.5910 O   0  0  0  0  0  0  0  0  0  0  0  0
    9.7260  -20.9170    5.2070 C   0  0  1  0  0  0  0  0  0  0  0  0
   11.2490  -21.0960    5.1410 C   0  0  2  0  0  0  0  0  0  0  0  0
   11.4840  -22.3420    5.8480 O   0  0  0  0  0  0  0  0  0  0  0  0
    9.2740  -20.0690    4.1330 O   0  0  0  0  0  0  0  0  0  0  0  0
    9.7310  -23.3510    7.1940 N   0  0  0  0  0  0  0  0  0  0  0  0
    8.9050  -24.4720    7.4190 C   0  0  0  0  0  0  0  0  0  0  0  0
    8.4260  -24.7200    8.7060 N   0  0  0  0  0  0  0  0  0  0  0  0
    8.7370  -23.8770    9.7840 C   0  0  0  0  0  0  0  0  0  0  0  0
    9.5610  -22.7690    9.5670 C   0  0  0  0  0  0  0  0  0  0  0  0
   10.0550  -22.5090    8.2830 C   0  0  0  0  0  0  0  0  0  0  0  0
    8.6050  -25.2260    6.4910 O   0  0  0  0  0  0  0  0  0  0  0  0
    8.2840  -24.1380   10.9050 O   0  0  0  0  0  0  0  0  0  0  0  0
   12.0630  -19.9940    5.8380 C   0  0  0  0  0  0  0  0  0  0  0  0
   11.3760  -18.7730    5.8710 O   0  0  0  0  0  0  0  0  0  0  0  0
   11.2700  -17.9420    7.2860 P   0  0  1  0  0  0  0  0  0  0  0  0
   10.0870  -17.0220    7.1990 O   0  0  0  0  0  0  0  0  0  0  0  0
   11.3360  -18.9380    8.3830 O   0  0  0  0  0  0  0  0  0  0  0  0
   12.6400  -17.0780    7.2380 O   0  0  0  0  0  0  0  0  0  0  0  0
   13.0380  -16.2390    5.9380 P   0  0  0  0  0  0  0  0  0  0  0  0
   11.8950  -16.1130    4.9810 O   0  0  0  0  0  0  0  0  0  0  0  0
   13.6040  -14.8300    6.4640 O   0  0  0  0  0  0  0  0  0  0  0  0
   14.2560  -16.9830    5.2910 O   0  0  0  0  0  0  0  0  0  0  0  0
  1  2  1  0  0  0  0
  1  6  1  0  0  0  0
  1  8  1  1  0  0  0
  2  3  1  6  0  0  0
  2  4  1  0  0  0  0
  4  7  1  6  0  0  0
  4  5  1  0  0  0  0
  5 16  1  1  0  0  0
  5  6  1  0  0  0  0
  8  9  1  0  0  0  0
  8 13  1  0  0  0  0
  9 14  2  0  0  0  0
  9 10  1  0  0  0  0
 10 11  1  0  0  0  0
 11 12  1  0  0  0  0
 11 15  2  0  0  0  0
 12 13  2  0  0  0  0
 16 17  1  0  0  0  0
 17 18  1  0  0  0  0
 18 19  2  1  0  0  0
 18 21  1  0  0  0  0
 18 20  1  0  0  0  0
 21 22  1  0  0  0  0
 22 25  2  0  0  0  0
 22 24  1  0  0  0  0
 22 23  1  0  0  0  0
M  END
>  <MODEL>
       2

>  <COMPND>
    UNNAMED

>  <AUTHOR>
    GENERATED BY OPEN BABEL 2.4.90

>  <MASTER>
        0    0    0    0    0    0    0    0   25    0   25    0

