__3v0l_A_rec_2rj0_udp_lig_min.pdb
 OpenBabel10181912403D

 25 26  0  0  1  0  0  0  0  0999 V2000
   10.1960  -23.1940    5.8800 C   0  0  1  0  0  0  0  0  0  0  0  0
    9.2670  -22.2690    5.0740 C   0  0  2  0  0  0  0  0  0  0  0  0
    9.3350  -22.5770    3.6710 O   0  0  0  0  0  0  0  0  0  0  0  0
    9.9160  -20.9380    5.3070 C   0  0  1  0  0  0  0  0  0  0  0  0
   11.4010  -21.3090    5.2210 C   0  0  2  0  0  0  0  0  0  0  0  0
   11.5040  -22.5700    5.9170 O   0  0  0  0  0  0  0  0  0  0  0  0
    9.5850  -20.0790    4.2080 O   0  0  0  0  0  0  0  0  0  0  0  0
    9.6910  -23.3850    7.2670 N   0  0  0  0  0  0  0  0  0  0  0  0
    8.8280  -24.4640    7.5170 C   0  0  0  0  0  0  0  0  0  0  0  0
    8.3410  -24.6890    8.8000 N   0  0  0  0  0  0  0  0  0  0  0  0
    8.7010  -23.8490    9.8470 C   0  0  0  0  0  0  0  0  0  0  0  0
    9.5590  -22.7720    9.6180 C   0  0  0  0  0  0  0  0  0  0  0  0
   10.0610  -22.5350    8.3340 C   0  0  0  0  0  0  0  0  0  0  0  0
    8.4880  -25.2090    6.6100 O   0  0  0  0  0  0  0  0  0  0  0  0
    8.2450  -24.0860   10.9690 O   0  0  0  0  0  0  0  0  0  0  0  0
   12.4130  -20.3530    5.8570 C   0  0  0  0  0  0  0  0  0  0  0  0
   11.9370  -19.8580    7.0410 O   0  0  0  0  0  0  0  0  0  0  0  0
   11.7070  -18.2710    7.2060 P   0  0  1  0  0  0  0  0  0  0  0  0
   10.7440  -17.8000    6.1550 O   0  0  0  0  0  0  0  0  0  0  0  0
   11.4410  -18.0090    8.6310 O   0  0  0  0  0  0  0  0  0  0  0  0
   13.1720  -17.7290    6.8670 O   0  0  0  0  0  0  0  0  0  0  0  0
   13.5680  -16.1750    6.7930 P   0  0  0  0  0  0  0  0  0  0  0  0
   12.5990  -15.2980    7.7470 O   0  0  0  0  0  0  0  0  0  0  0  0
   15.0170  -16.0040    7.0550 O   0  0  0  0  0  0  0  0  0  0  0  0
   13.2240  -15.7130    5.3390 O   0  0  0  0  0  0  0  0  0  0  0  0
  1  2  1  0  0  0  0
  1  6  1  0  0  0  0
  1  8  1  1  0  0  0
  2  3  1  6  0  0  0
  2  4  1  0  0  0  0
  4  7  1  6  0  0  0
  4  5  1  0  0  0  0
  5 16  1  1  0  0  0
  5  6  1  0  0  0  0
  8  9  1  0  0  0  0
  8 13  1  0  0  0  0
  9 14  2  0  0  0  0
  9 10  1  0  0  0  0
 10 11  1  0  0  0  0
 11 12  1  0  0  0  0
 11 15  2  0  0  0  0
 12 13  2  0  0  0  0
 16 17  1  0  0  0  0
 17 18  1  0  0  0  0
 18 19  2  6  0  0  0
 18 21  1  0  0  0  0
 18 20  1  0  0  0  0
 21 22  1  0  0  0  0
 22 25  2  0  0  0  0
 22 24  1  0  0  0  0
 22 23  1  0  0  0  0
M  END
>  <COMPND>
    UNNAMED

>  <AUTHOR>
    GENERATED BY OPEN BABEL 2.4.90

>  <MASTER>
        0    0    0    0    0    0    0    0   25    0   25    0

