__3v0m_A_rec_5c38_urm_lig_min.pdb
 OpenBabel10181912093D

 36 38  0  0  1  0  0  0  0  0999 V2000
   11.8130  -18.2850    7.1350 P   0  0  1  0  0  0  0  0  0  0  0  0
   10.7340  -17.9080    6.2040 O   0  0  0  0  0  0  0  0  0  0  0  0
   11.6620  -17.9860    8.5790 O   0  0  0  0  0  0  0  0  0  0  0  0
   12.1250  -19.7950    7.0130 O   0  0  0  0  0  0  0  0  0  0  0  0
   12.6500  -20.3730    5.8030 C   0  0  0  0  0  0  0  0  0  0  0  0
   10.3700  -23.1950    5.9840 C   0  0  1  0  0  0  0  0  0  0  0  0
    9.4990  -22.3420    5.0690 C   0  0  1  0  0  0  0  0  0  0  0  0
   10.1790  -21.0040    5.2150 C   0  0  1  0  0  0  0  0  0  0  0  0
   11.6520  -21.4040    5.1560 C   0  0  2  0  0  0  0  0  0  0  0  0
   11.6870  -22.5640    5.9990 O   0  0  0  0  0  0  0  0  0  0  0  0
    9.8130  -20.1280    4.1410 O   0  0  0  0  0  0  0  0  0  0  0  0
    9.6040  -22.8520    3.7290 O   0  0  0  0  0  0  0  0  0  0  0  0
    9.8630  -23.2140    7.3690 N   0  0  0  0  0  0  0  0  0  0  0  0
    8.3040  -24.1460    8.8980 N   0  0  0  0  0  0  0  0  0  0  0  0
    9.8760  -22.5160    9.6710 C   0  0  0  0  0  0  0  0  0  0  0  0
   10.4040  -22.4260    8.3900 C   0  0  0  0  0  0  0  0  0  0  0  0
    8.8080  -24.0760    7.6160 C   0  0  0  0  0  0  0  0  0  0  0  0
    8.3340  -24.7730    6.7220 O   0  0  0  0  0  0  0  0  0  0  0  0
    8.8290  -23.3830    9.9170 C   0  0  0  0  0  0  0  0  0  0  0  0
    8.3310  -23.4870   11.0500 O   0  0  0  0  0  0  0  0  0  0  0  0
   13.2610  -17.6850    6.6300 O   0  0  0  0  0  0  0  0  0  0  0  0
   13.6610  -16.3050    6.0240 P   0  0  1  0  0  0  0  0  0  0  0  0
   12.6700  -15.7040    5.0820 O   0  0  0  0  0  0  0  0  0  0  0  0
   14.4890  -15.3930    6.8360 O   0  0  0  0  0  0  0  0  0  0  0  0
   14.8770  -16.9950    4.8460 C   0  0  0  0  0  0  0  0  0  0  0  0
   16.6580  -17.4020    6.7340 O   0  0  0  0  0  0  0  0  0  0  0  0
   16.6830  -18.7920    7.0050 C   0  0  1  0  0  0  0  0  0  0  0  0
   17.8140  -19.4100    6.2080 C   0  0  1  0  0  0  0  0  0  0  0  0
   17.5410  -19.1870    4.7200 C   0  0  1  0  0  0  0  0  0  0  0  0
   17.4010  -17.6540    4.4170 C   0  0  2  0  0  0  0  0  0  0  0  0
   16.3630  -16.9660    5.3480 C   0  0  1  0  0  0  0  0  0  0  0  0
   19.0670  -18.8000    6.5970 O   0  0  0  0  0  0  0  0  0  0  0  0
   18.6380  -19.7450    4.0200 O   0  0  0  0  0  0  0  0  0  0  0  0
   17.0470  -17.3780    3.0470 O   0  0  0  0  0  0  0  0  0  0  0  0
   16.9230  -19.0390    8.5040 C   0  0  0  0  0  0  0  0  0  0  0  0
   17.9010  -18.1020    8.9920 O   0  0  0  0  0  0  0  0  0  0  0  0
  1  2  2  6  0  0  0
  1 21  1  0  0  0  0
  1  4  1  0  0  0  0
  1  3  1  0  0  0  0
  4  5  1  0  0  0  0
  6  7  1  0  0  0  0
  6 10  1  0  0  0  0
  6 13  1  1  0  0  0
  7 12  1  6  0  0  0
  7  8  1  0  0  0  0
  8 11  1  6  0  0  0
  8  9  1  0  0  0  0
  9  5  1  1  0  0  0
  9 10  1  0  0  0  0
 13 17  1  0  0  0  0
 13 16  1  0  0  0  0
 14 17  1  0  0  0  0
 14 19  1  0  0  0  0
 15 16  2  0  0  0  0
 15 19  1  0  0  0  0
 17 18  2  0  0  0  0
 19 20  2  0  0  0  0
 21 22  1  0  0  0  0
 22 23  2  6  0  0  0
 22 25  1  0  0  0  0
 22 24  1  0  0  0  0
 26 31  1  0  0  0  0
 26 27  1  0  0  0  0
 27 28  1  0  0  0  0
 27 35  1  1  0  0  0
 28 29  1  0  0  0  0
 28 32  1  1  0  0  0
 29 30  1  0  0  0  0
 29 33  1  6  0  0  0
 30 34  1  6  0  0  0
 30 31  1  0  0  0  0
 31 25  1  6  0  0  0
 35 36  1  0  0  0  0
M  END
>  <COMPND>
    UNNAMED

>  <AUTHOR>
    GENERATED BY OPEN BABEL 2.4.90

>  <MASTER>
        0    0    0    0    0    0    0    0   36    0   36    0

