__3v0n_A_rec_5c1g_da8_lig_min.pdb
 OpenBabel10181900143D

 27 28  0  0  1  0  0  0  0  0999 V2000
   17.7980  -10.8380    6.2070 C   0  0  2  0  0  0  0  0  0  0  0  0
   19.1590  -11.1040    5.8170 O   0  0  0  0  0  0  0  0  0  0  0  0
   19.6130  -12.2640    6.5300 C   0  0  1  0  0  0  0  0  0  0  0  0
   18.7680  -13.5070    6.2120 C   0  0  2  0  0  0  0  0  0  0  0  0
   18.8460  -13.8270    4.8330 O   0  0  0  0  0  0  0  0  0  0  0  0
   17.3320  -13.1660    6.6190 C   0  0  0  0  0  0  0  0  0  0  0  0
   16.8540  -11.9360    5.7990 C   0  0  1  0  0  0  0  0  0  0  0  0
   21.0920  -12.4090    6.1640 C   0  0  0  0  0  0  0  0  0  0  0  0
   21.8340  -11.3590    6.7900 O   0  0  0  0  0  0  0  0  0  0  0  0
   17.2510   -9.7050    5.5660 O   0  0  0  0  0  0  0  0  0  0  0  0
   18.2240   -8.6680    5.5520 C   0  0  0  0  0  0  0  0  0  0  0  0
   17.4250   -7.4090    5.8540 C   0  0  0  0  0  0  0  0  0  0  0  0
   17.2820   -7.3960    7.3860 C   0  0  0  0  0  0  0  0  0  0  0  0
   15.8980   -7.0350    7.9150 C   0  0  0  0  0  0  0  0  0  0  0  0
   13.5230   -7.9160    8.0240 C   0  0  0  0  0  0  0  0  0  0  0  0
   14.9980   -8.2670    7.8120 C   0  0  0  0  0  0  0  0  0  0  0  0
   15.5160  -11.6660    6.2300 O   0  0  0  0  0  0  0  0  0  0  0  0
   14.5390  -12.5170    5.6300 C   0  0  2  0  0  0  0  0  0  0  0  0
   14.7790  -12.4560    4.2000 O   0  0  0  0  0  0  0  0  0  0  0  0
   14.6520  -11.1130    3.6700 C   0  0  1  0  0  0  0  0  0  0  0  0
   14.9480  -11.1360    2.1700 C   0  0  0  0  0  0  0  0  0  0  0  0
   13.2380  -10.5820    3.9190 C   0  0  1  0  0  0  0  0  0  0  0  0
   12.2600  -11.3680    3.2400 O   0  0  0  0  0  0  0  0  0  0  0  0
   12.9980  -10.5750    5.4190 C   0  0  1  0  0  0  0  0  0  0  0  0
   11.6770  -10.1060    5.6880 O   0  0  0  0  0  0  0  0  0  0  0  0
   13.1360  -11.9980    5.9420 C   0  0  2  0  0  0  0  0  0  0  0  0
   12.9110  -11.9740    7.3460 O   0  0  0  0  0  0  0  0  0  0  0  0
  1  7  1  0  0  0  0
  1 10  1  6  0  0  0
  1  2  1  0  0  0  0
  2  3  1  0  0  0  0
  3  4  1  0  0  0  0
  3  8  1  6  0  0  0
  4  5  1  6  0  0  0
  4  6  1  0  0  0  0
  6  7  1  0  0  0  0
  7 17  1  1  0  0  0
  8  9  1  0  0  0  0
 10 11  1  0  0  0  0
 11 12  1  0  0  0  0
 12 13  1  0  0  0  0
 13 14  1  0  0  0  0
 14 16  1  0  0  0  0
 15 16  1  0  0  0  0
 18 17  1  1  0  0  0
 18 19  1  0  0  0  0
 18 26  1  0  0  0  0
 19 20  1  0  0  0  0
 20 21  1  6  0  0  0
 20 22  1  0  0  0  0
 22 23  1  6  0  0  0
 22 24  1  0  0  0  0
 24 26  1  0  0  0  0
 24 25  1  6  0  0  0
 26 27  1  1  0  0  0
M  END
>  <COMPND>
    UNNAMED

>  <AUTHOR>
    GENERATED BY OPEN BABEL 2.4.90

>  <MASTER>
        0    0    0    0    0    0    0    0   27    0   27    0

