__3v0n_A_rec_3zgf_udp_lig_docked.pdb
 OpenBabel10181915393D

 25 26  0  0  1  0  0  0  0  0999 V2000
   10.5180  -22.9590    5.9790 C   0  0  1  0  0  0  0  0  0  0  0  0
    9.5770  -22.2090    5.0590 C   0  0  2  0  0  0  0  0  0  0  0  0
    9.6630  -22.7600    3.7560 O   0  0  0  0  0  0  0  0  0  0  0  0
   10.1840  -20.8220    5.0590 C   0  0  1  0  0  0  0  0  0  0  0  0
   11.6680  -21.1340    5.1160 C   0  0  2  0  0  0  0  0  0  0  0  0
   11.7480  -22.2440    5.9880 O   0  0  0  0  0  0  0  0  0  0  0  0
    9.8290  -20.1180    3.9030 O   0  0  0  0  0  0  0  0  0  0  0  0
    9.9550  -23.0180    7.3480 N   0  0  0  0  0  0  0  0  0  0  0  0
    8.9410  -23.9240    7.6220 C   0  0  0  0  0  0  0  0  0  0  0  0
    8.4060  -24.0140    8.8890 N   0  0  0  0  0  0  0  0  0  0  0  0
    8.8830  -23.1980    9.8990 C   0  0  0  0  0  0  0  0  0  0  0  0
    9.9060  -22.2830    9.6300 C   0  0  0  0  0  0  0  0  0  0  0  0
   10.4100  -22.1750    8.3340 C   0  0  0  0  0  0  0  0  0  0  0  0
    8.5160  -24.6550    6.7290 O   0  0  0  0  0  0  0  0  0  0  0  0
    8.3960  -23.2860   11.0280 O   0  0  0  0  0  0  0  0  0  0  0  0
   12.4850  -19.9550    5.6300 C   0  0  0  0  0  0  0  0  0  0  0  0
   11.6100  -18.8580    5.7690 O   0  0  0  0  0  0  0  0  0  0  0  0
   11.5410  -17.9940    7.1210 P   0  0  1  0  0  0  0  0  0  0  0  0
   10.4990  -16.9430    7.0650 O   0  0  0  0  0  0  0  0  0  0  0  0
   11.3350  -18.8750    8.2970 O   0  0  0  0  0  0  0  0  0  0  0  0
   13.0110  -17.3190    7.1830 O   0  0  0  0  0  0  0  0  0  0  0  0
   13.6970  -16.3660    6.0730 P   0  0  0  0  0  0  0  0  0  0  0  0
   14.0360  -15.0630    6.6990 O   0  0  0  0  0  0  0  0  0  0  0  0
   12.6950  -16.1520    5.0000 O   0  0  0  0  0  0  0  0  0  0  0  0
   14.9000  -16.9630    5.4470 O   0  0  0  0  0  0  0  0  0  0  0  0
  1  2  1  0  0  0  0
  1  6  1  0  0  0  0
  1  8  1  1  0  0  0
  2  3  1  6  0  0  0
  2  4  1  0  0  0  0
  4  7  1  6  0  0  0
  4  5  1  0  0  0  0
  5 16  1  1  0  0  0
  5  6  1  0  0  0  0
  8  9  1  0  0  0  0
  8 13  1  0  0  0  0
  9 14  2  0  0  0  0
  9 10  1  0  0  0  0
 10 11  1  0  0  0  0
 11 12  1  0  0  0  0
 11 15  2  0  0  0  0
 12 13  2  0  0  0  0
 16 17  1  0  0  0  0
 17 18  1  0  0  0  0
 18 19  2  6  0  0  0
 18 21  1  0  0  0  0
 18 20  1  0  0  0  0
 21 22  1  0  0  0  0
 22 23  2  0  0  0  0
 22 25  1  0  0  0  0
 22 24  1  0  0  0  0
M  END
>  <MODEL>
       4

>  <COMPND>
    UNNAMED

>  <AUTHOR>
    GENERATED BY OPEN BABEL 2.4.90

>  <MASTER>
        0    0    0    0    0    0    0    0   25    0   25    0

