__3v0n_A_rec_1lzj_udp_lig_docked.pdb
 OpenBabel10181915373D

 25 26  0  0  1  0  0  0  0  0999 V2000
   10.4960  -23.0210    6.0010 C   0  0  1  0  0  0  0  0  0  0  0  0
    9.6140  -22.2040    5.0200 C   0  0  2  0  0  0  0  0  0  0  0  0
    9.6670  -22.7180    3.6950 O   0  0  0  0  0  0  0  0  0  0  0  0
   10.2330  -20.8270    5.1420 C   0  0  1  0  0  0  0  0  0  0  0  0
   11.7300  -21.1910    5.1220 C   0  0  2  0  0  0  0  0  0  0  0  0
   11.7930  -22.4090    5.9300 O   0  0  0  0  0  0  0  0  0  0  0  0
    9.8350  -20.0800    3.9800 O   0  0  0  0  0  0  0  0  0  0  0  0
    9.9980  -23.0200    7.4110 N   0  0  0  0  0  0  0  0  0  0  0  0
    8.9060  -23.8420    7.7120 C   0  0  0  0  0  0  0  0  0  0  0  0
    8.4300  -23.8480    9.0280 N   0  0  0  0  0  0  0  0  0  0  0  0
    8.9080  -23.1160   10.1410 C   0  0  0  0  0  0  0  0  0  0  0  0
   10.1310  -22.1770    9.8500 C   0  0  0  0  0  0  0  0  0  0  0  0
   10.6010  -22.2140    8.4110 C   0  0  0  0  0  0  0  0  0  0  0  0
    8.3750  -24.5470    6.8300 O   0  0  0  0  0  0  0  0  0  0  0  0
    8.3380  -23.2670   11.2260 O   0  0  0  0  0  0  0  0  0  0  0  0
   12.7100  -20.1770    5.7810 C   0  0  0  0  0  0  0  0  0  0  0  0
   12.0660  -18.9210    5.8800 O   0  0  0  0  0  0  0  0  0  0  0  0
   11.7370  -18.0200    7.1200 P   0  0  1  0  0  0  0  0  0  0  0  0
   10.4050  -17.3720    6.8710 O   0  0  0  0  0  0  0  0  0  0  0  0
   11.8930  -18.8820    8.3510 O   0  0  0  0  0  0  0  0  0  0  0  0
   12.8870  -16.9240    7.0110 O   0  0  0  0  0  0  0  0  0  0  0  0
   13.1920  -15.9030    5.8220 P   0  0  0  0  0  0  0  0  0  0  0  0
   13.0510  -14.4540    6.4870 O   0  0  0  0  0  0  0  0  0  0  0  0
   12.1200  -16.1850    4.8340 O   0  0  0  0  0  0  0  0  0  0  0  0
   14.6310  -16.0070    5.3910 O   0  0  0  0  0  0  0  0  0  0  0  0
  1  2  1  0  0  0  0
  1  6  1  0  0  0  0
  1  8  1  1  0  0  0
  2  3  1  6  0  0  0
  2  4  1  0  0  0  0
  4  7  1  6  0  0  0
  4  5  1  0  0  0  0
  5 16  1  1  0  0  0
  5  6  1  0  0  0  0
  8  9  1  0  0  0  0
  8 13  1  0  0  0  0
  9 14  2  0  0  0  0
  9 10  1  0  0  0  0
 10 11  1  0  0  0  0
 11 12  1  0  0  0  0
 11 15  2  0  0  0  0
 12 13  2  0  0  0  0
 16 17  1  0  0  0  0
 17 18  1  0  0  0  0
 18 19  2  6  0  0  0
 18 21  1  0  0  0  0
 18 20  1  0  0  0  0
 21 22  1  0  0  0  0
 22 25  2  0  0  0  0
 22 23  1  0  0  0  0
 22 24  1  0  0  0  0
M  END
>  <MODEL>
       6

>  <COMPND>
    UNNAMED

>  <AUTHOR>
    GENERATED BY OPEN BABEL 2.4.90

>  <MASTER>
        0    0    0    0    0    0    0    0   25    0   25    0

