__3v0n_A_rec_5c1l_da8_lig_min.pdb
 OpenBabel10181903483D

 27 28  0  0  1  0  0  0  0  0999 V2000
   17.6400  -10.9470    6.3020 C   0  0  2  0  0  0  0  0  0  0  0  0
   18.9660  -11.1790    5.8300 O   0  0  0  0  0  0  0  0  0  0  0  0
   19.5660  -12.1960    6.5560 C   0  0  1  0  0  0  0  0  0  0  0  0
   18.8560  -13.5200    6.2260 C   0  0  2  0  0  0  0  0  0  0  0  0
   18.9060  -13.8660    4.8200 O   0  0  0  0  0  0  0  0  0  0  0  0
   17.3880  -13.3750    6.6480 C   0  0  0  0  0  0  0  0  0  0  0  0
   16.7880  -12.1470    5.9760 C   0  0  1  0  0  0  0  0  0  0  0  0
   21.0480  -12.2480    6.1530 C   0  0  0  0  0  0  0  0  0  0  0  0
   21.7520  -11.2260    6.8990 O   0  0  0  0  0  0  0  0  0  0  0  0
   17.1150   -9.8990    5.6120 O   0  0  0  0  0  0  0  0  0  0  0  0
   18.0910   -8.8090    5.4760 C   0  0  0  0  0  0  0  0  0  0  0  0
   17.4690   -7.5010    5.9630 C   0  0  0  0  0  0  0  0  0  0  0  0
   17.2960   -7.4050    7.4780 C   0  0  0  0  0  0  0  0  0  0  0  0
   15.8510   -7.0680    7.9310 C   0  0  0  0  0  0  0  0  0  0  0  0
   13.4400   -7.8960    8.0260 C   0  0  0  0  0  0  0  0  0  0  0  0
   14.9180   -8.2750    7.8160 C   0  0  0  0  0  0  0  0  0  0  0  0
   15.4300  -11.9540    6.4570 O   0  0  0  0  0  0  0  0  0  0  0  0
   14.4660  -12.7330    5.7400 C   0  0  2  0  0  0  0  0  0  0  0  0
   14.4200  -12.3190    4.4010 O   0  0  0  0  0  0  0  0  0  0  0  0
   14.0160  -10.9230    4.1900 C   0  0  1  0  0  0  0  0  0  0  0  0
   14.0700  -10.6390    2.6910 C   0  0  0  0  0  0  0  0  0  0  0  0
   12.6430  -10.7070    4.8220 C   0  0  1  0  0  0  0  0  0  0  0  0
   11.6390  -11.4250    4.1040 O   0  0  0  0  0  0  0  0  0  0  0  0
   12.6870  -11.1170    6.2870 C   0  0  1  0  0  0  0  0  0  0  0  0
   11.3900  -10.8990    6.8780 O   0  0  0  0  0  0  0  0  0  0  0  0
   13.1090  -12.5730    6.4140 C   0  0  2  0  0  0  0  0  0  0  0  0
   13.2430  -12.9160    7.7920 O   0  0  0  0  0  0  0  0  0  0  0  0
  1 10  1  6  0  0  0
  1  2  1  0  0  0  0
  1  7  1  0  0  0  0
  2  3  1  0  0  0  0
  3  8  1  6  0  0  0
  3  4  1  0  0  0  0
  4  5  1  6  0  0  0
  4  6  1  0  0  0  0
  6  7  1  0  0  0  0
  7 17  1  1  0  0  0
  8  9  1  0  0  0  0
 10 11  1  0  0  0  0
 11 12  1  0  0  0  0
 12 13  1  0  0  0  0
 13 14  1  0  0  0  0
 14 16  1  0  0  0  0
 15 16  1  0  0  0  0
 18 17  1  1  0  0  0
 18 19  1  0  0  0  0
 18 26  1  0  0  0  0
 19 20  1  0  0  0  0
 20 21  1  6  0  0  0
 20 22  1  0  0  0  0
 22 23  1  6  0  0  0
 22 24  1  0  0  0  0
 24 26  1  0  0  0  0
 24 25  1  6  0  0  0
 26 27  1  1  0  0  0
M  END
>  <COMPND>
    UNNAMED

>  <AUTHOR>
    GENERATED BY OPEN BABEL 2.4.90

>  <MASTER>
        0    0    0    0    0    0    0    0   27    0   27    0

