__3v0o_A_rec_3v0m_bhe_lig_min.pdb
 OpenBabel10181900473D

 30 31  0  0  1  0  0  0  0  0999 V2000
   17.9850  -10.6620    5.7480 C   0  0  2  0  0  0  0  0  0  0  0  0
   19.3130  -10.9230    5.4160 O   0  0  0  0  0  0  0  0  0  0  0  0
   19.8840  -11.9210    6.2580 C   0  0  1  0  0  0  0  0  0  0  0  0
   19.1360  -13.2550    6.1470 C   0  0  2  0  0  0  0  0  0  0  0  0
   19.2370  -13.7670    4.8060 O   0  0  0  0  0  0  0  0  0  0  0  0
   17.7230  -12.9650    6.5680 C   0  0  2  0  0  0  0  0  0  0  0  0
   16.9640  -14.1960    6.4580 O   0  0  0  0  0  0  0  0  0  0  0  0
   17.1440  -11.9140    5.6350 C   0  0  1  0  0  0  0  0  0  0  0  0
   22.1230  -11.1380    6.7060 O   0  0  0  0  0  0  0  0  0  0  0  0
   21.3510  -12.0620    5.9070 C   0  0  0  0  0  0  0  0  0  0  0  0
   17.4790   -9.6610    4.8650 O   0  0  0  0  0  0  0  0  0  0  0  0
   17.4180   -8.3540    5.4650 C   0  0  0  0  0  0  0  0  0  0  0  0
   17.4100   -7.3180    4.3300 C   0  0  0  0  0  0  0  0  0  0  0  0
   18.5140   -6.2480    4.5200 C   0  0  0  0  0  0  0  0  0  0  0  0
   19.9230   -6.8280    4.7140 C   0  0  0  0  0  0  0  0  0  0  0  0
   20.4430   -6.3220    6.0800 C   0  0  0  0  0  0  0  0  0  0  0  0
   21.7860   -5.5740    5.9720 C   0  0  0  0  0  0  0  0  0  0  0  0
   22.0480   -5.0240    4.5780 C   0  0  0  0  0  0  0  0  0  0  0  0
   21.6170   -3.5610    4.5480 C   0  0  0  0  0  0  0  0  0  0  0  0
   15.7910  -11.5940    6.0010 O   0  0  0  0  0  0  0  0  0  0  0  0
   14.7490  -12.2560    5.3180 C   0  0  1  0  0  0  0  0  0  0  0  0
   13.4870  -12.1810    6.1260 C   0  0  1  0  0  0  0  0  0  0  0  0
   13.6630  -12.8150    7.4230 O   0  0  0  0  0  0  0  0  0  0  0  0
   13.1140  -10.7270    6.3910 C   0  0  2  0  0  0  0  0  0  0  0  0
   11.8400  -10.7340    7.0840 O   0  0  0  0  0  0  0  0  0  0  0  0
   12.9190   -9.9800    5.1070 C   0  0  2  0  0  0  0  0  0  0  0  0
   11.8520  -10.5100    4.3060 O   0  0  0  0  0  0  0  0  0  0  0  0
   14.2530  -10.0640    4.3620 C   0  0  1  0  0  0  0  0  0  0  0  0
   14.6000  -11.4430    4.1090 O   0  0  0  0  0  0  0  0  0  0  0  0
   14.1400   -9.3250    3.0260 C   0  0  0  0  0  0  0  0  0  0  0  0
  1 11  1  6  0  0  0
  1  2  1  0  0  0  0
  1  8  1  0  0  0  0
  2  3  1  0  0  0  0
  3 10  1  6  0  0  0
  3  4  1  0  0  0  0
  4  5  1  6  0  0  0
  4  6  1  0  0  0  0
  6  8  1  0  0  0  0
  6  7  1  6  0  0  0
  8 20  1  1  0  0  0
  9 10  1  0  0  0  0
 11 12  1  0  0  0  0
 12 13  1  0  0  0  0
 13 14  1  0  0  0  0
 14 15  1  0  0  0  0
 15 16  1  0  0  0  0
 16 17  1  0  0  0  0
 17 18  1  0  0  0  0
 18 19  1  0  0  0  0
 21 20  1  1  0  0  0
 21 29  1  0  0  0  0
 21 22  1  0  0  0  0
 22 24  1  0  0  0  0
 22 23  1  1  0  0  0
 24 26  1  0  0  0  0
 24 25  1  1  0  0  0
 26 27  1  6  0  0  0
 26 28  1  0  0  0  0
 28 30  1  6  0  0  0
 28 29  1  0  0  0  0
M  END
>  <COMPND>
    UNNAMED

>  <AUTHOR>
    GENERATED BY OPEN BABEL 2.4.90

>  <MASTER>
        0    0    0    0    0    0    0    0   30    0   30    0

