__3v0o_A_rec_1zi5_dr3_lig_min.pdb
 OpenBabel10181912103D

 36 38  0  0  1  0  0  0  0  0999 V2000
   17.1970  -11.8310    5.6270 C   0  0  2  0  0  0  0  0  0  0  0  0
   17.8250  -12.9940    6.4000 C   0  0  1  0  0  0  0  0  0  0  0  0
   17.2220  -14.2240    5.9920 O   0  0  0  0  0  0  0  0  0  0  0  0
   19.3340  -13.0550    6.1520 C   0  0  1  0  0  0  0  0  0  0  0  0
   19.5820  -13.3580    4.7760 O   0  0  0  0  0  0  0  0  0  0  0  0
   19.9600  -11.7020    6.5030 C   0  0  2  0  0  0  0  0  0  0  0  0
   19.3280  -10.6710    5.7270 O   0  0  0  0  0  0  0  0  0  0  0  0
   17.9240  -10.5550    6.0220 C   0  0  1  0  0  0  0  0  0  0  0  0
   21.4630  -11.7160    6.2110 C   0  0  0  0  0  0  0  0  0  0  0  0
   22.1220  -10.7780    7.0670 O   0  0  0  0  0  0  0  0  0  0  0  0
   15.8050  -11.6970    5.9580 O   0  0  0  0  0  0  0  0  0  0  0  0
   13.5470  -13.1590    6.7900 O   0  0  0  0  0  0  0  0  0  0  0  0
   13.5440  -12.4570    5.5450 C   0  0  1  0  0  0  0  0  0  0  0  0
   12.9380  -11.0620    5.7280 C   0  0  2  0  0  0  0  0  0  0  0  0
   11.5670  -11.1830    6.1150 O   0  0  0  0  0  0  0  0  0  0  0  0
   13.0350  -10.2680    4.4220 C   0  0  2  0  0  0  0  0  0  0  0  0
   12.1910  -10.8640    3.4350 O   0  0  0  0  0  0  0  0  0  0  0  0
   14.4860  -10.2590    3.9330 C   0  0  2  0  0  0  0  0  0  0  0  0
   14.5970   -9.4980    2.6100 C   0  0  0  0  0  0  0  0  0  0  0  0
   14.9560  -11.6060    3.7610 O   0  0  0  0  0  0  0  0  0  0  0  0
   14.9690  -12.3520    4.9920 C   0  0  1  0  0  0  0  0  0  0  0  0
   17.3710   -9.4620    5.2740 O   0  0  0  0  0  0  0  0  0  0  0  0
   17.8220   -8.2130    5.8180 C   0  0  1  0  0  0  0  0  0  0  0  0
   18.3930   -7.3110    4.7200 C   0  0  2  0  0  0  0  0  0  0  0  0
   19.5430   -7.9370    4.1440 O   0  0  0  0  0  0  0  0  0  0  0  0
   18.7830   -5.9510    5.3040 C   0  0  2  0  0  0  0  0  0  0  0  0
   17.6460   -5.3420    5.9390 O   0  0  0  0  0  0  0  0  0  0  0  0
   17.1600   -6.1220    7.0450 C   0  0  1  0  0  0  0  0  0  0  0  0
   16.0740   -5.4400    7.6760 O   0  0  0  0  0  0  0  0  0  0  0  0
   16.6830   -7.4870    6.5400 C   0  0  2  0  0  0  0  0  0  0  0  0
   16.1910   -8.3020    7.6620 N   0  0  0  0  0  0  0  0  0  0  0  0
   14.9360   -8.7350    7.7680 C   0  0  0  0  0  0  0  0  0  0  0  0
   13.8650   -7.8680    7.0990 C   0  0  0  0  0  0  0  0  0  0  0  0
   14.5890   -9.4900    8.8430 O   0  0  0  0  0  0  0  0  0  0  0  0
   19.2910   -5.0330    4.1900 C   0  0  0  0  0  0  0  0  0  0  0  0
   18.2440   -4.7950    3.2480 O   0  0  0  0  0  0  0  0  0  0  0  0
  1  8  1  0  0  0  0
  1 11  1  1  0  0  0
  1  2  1  0  0  0  0
  2  3  1  6  0  0  0
  2  4  1  0  0  0  0
  4  5  1  6  0  0  0
  4  6  1  0  0  0  0
  6  7  1  0  0  0  0
  6  9  1  6  0  0  0
  7  8  1  0  0  0  0
  8 22  1  6  0  0  0
  9 10  1  0  0  0  0
 13 12  1  1  0  0  0
 13 21  1  0  0  0  0
 13 14  1  0  0  0  0
 14 16  1  0  0  0  0
 14 15  1  6  0  0  0
 16 17  1  6  0  0  0
 16 18  1  0  0  0  0
 18 19  1  6  0  0  0
 18 20  1  0  0  0  0
 20 21  1  0  0  0  0
 21 11  1  1  0  0  0
 23 22  1  6  0  0  0
 23 24  1  0  0  0  0
 23 30  1  0  0  0  0
 24 25  1  1  0  0  0
 24 26  1  0  0  0  0
 26 35  1  6  0  0  0
 26 27  1  0  0  0  0
 27 28  1  0  0  0  0
 28 30  1  0  0  0  0
 28 29  1  6  0  0  0
 30 31  1  1  0  0  0
 31 32  1  0  0  0  0
 32 33  1  0  0  0  0
 32 34  2  0  0  0  0
 35 36  1  0  0  0  0
M  END
>  <COMPND>
    UNNAMED

>  <AUTHOR>
    GENERATED BY OPEN BABEL 2.4.90

>  <MASTER>
        0    0    0    0    0    0    0    0   36    0   36    0

