__3v0o_A_rec_5c3a_urm_lig_min.pdb
 OpenBabel10181911123D

 36 38  0  0  1  0  0  0  0  0999 V2000
   11.9180  -18.1580    7.0150 P   0  0  1  0  0  0  0  0  0  0  0  0
   10.8280  -17.7910    6.0380 O   0  0  0  0  0  0  0  0  0  0  0  0
   11.7570  -17.8030    8.4870 O   0  0  0  0  0  0  0  0  0  0  0  0
   12.2290  -19.7080    6.9250 O   0  0  0  0  0  0  0  0  0  0  0  0
   12.7610  -20.2420    5.7110 C   0  0  0  0  0  0  0  0  0  0  0  0
   10.4540  -22.9520    5.8620 C   0  0  1  0  0  0  0  0  0  0  0  0
    9.6520  -22.1070    4.8740 C   0  0  1  0  0  0  0  0  0  0  0  0
   10.3410  -20.7840    4.9790 C   0  0  1  0  0  0  0  0  0  0  0  0
   11.7910  -21.2250    5.0950 C   0  0  2  0  0  0  0  0  0  0  0  0
   11.7670  -22.3800    5.9270 O   0  0  0  0  0  0  0  0  0  0  0  0
   10.0750  -19.9270    3.8550 O   0  0  0  0  0  0  0  0  0  0  0  0
    9.7680  -22.6330    3.5420 O   0  0  0  0  0  0  0  0  0  0  0  0
    9.8450  -22.9120    7.2030 N   0  0  0  0  0  0  0  0  0  0  0  0
    8.1380  -23.7440    8.6300 N   0  0  0  0  0  0  0  0  0  0  0  0
    9.6790  -22.1450    9.4630 C   0  0  0  0  0  0  0  0  0  0  0  0
   10.3130  -22.1310    8.2170 C   0  0  0  0  0  0  0  0  0  0  0  0
    8.7290  -23.7370    7.4170 C   0  0  0  0  0  0  0  0  0  0  0  0
    8.3020  -24.4490    6.4810 O   0  0  0  0  0  0  0  0  0  0  0  0
    8.5920  -22.9910    9.6450 C   0  0  0  0  0  0  0  0  0  0  0  0
    8.0000  -23.0350   10.7670 O   0  0  0  0  0  0  0  0  0  0  0  0
   13.3580  -17.5640    6.5600 O   0  0  0  0  0  0  0  0  0  0  0  0
   13.7220  -16.0410    6.2550 P   0  0  2  0  0  0  0  0  0  0  0  0
   13.4560  -15.2380    7.6260 O   0  0  0  0  0  0  0  0  0  0  0  0
   12.9800  -15.4870    5.0840 O   0  0  0  0  0  0  0  0  0  0  0  0
   15.4860  -16.0070    5.9210 C   0  0  0  0  0  0  0  0  0  0  0  0
   15.4400  -13.5140    5.9670 O   0  0  0  0  0  0  0  0  0  0  0  0
   16.2800  -13.3020    7.1060 C   0  0  1  0  0  0  0  0  0  0  0  0
   17.6570  -12.9460    6.5930 C   0  0  1  0  0  0  0  0  0  0  0  0
   18.2120  -14.1310    5.8230 C   0  0  1  0  0  0  0  0  0  0  0  0
   17.2280  -14.5970    4.7550 C   0  0  2  0  0  0  0  0  0  0  0  0
   15.7700  -14.6900    5.1960 C   0  0  1  0  0  0  0  0  0  0  0  0
   17.5030  -11.8470    5.7000 O   0  0  0  0  0  0  0  0  0  0  0  0
   19.3750  -13.7340    5.1120 O   0  0  0  0  0  0  0  0  0  0  0  0
   17.6430  -15.8870    4.3180 O   0  0  0  0  0  0  0  0  0  0  0  0
   15.6850  -12.1940    7.9560 C   0  0  0  0  0  0  0  0  0  0  0  0
   14.5130  -12.7080    8.5930 O   0  0  0  0  0  0  0  0  0  0  0  0
  1  2  2  6  0  0  0
  1  4  1  0  0  0  0
  1 21  1  0  0  0  0
  1  3  1  0  0  0  0
  4  5  1  0  0  0  0
  6  7  1  0  0  0  0
  6 10  1  0  0  0  0
  6 13  1  1  0  0  0
  7 12  1  6  0  0  0
  7  8  1  0  0  0  0
  8 11  1  6  0  0  0
  8  9  1  0  0  0  0
  9  5  1  1  0  0  0
  9 10  1  0  0  0  0
 13 17  1  0  0  0  0
 13 16  1  0  0  0  0
 14 17  1  0  0  0  0
 14 19  1  0  0  0  0
 15 16  2  0  0  0  0
 15 19  1  0  0  0  0
 17 18  2  0  0  0  0
 19 20  2  0  0  0  0
 21 22  1  0  0  0  0
 22 24  2  6  0  0  0
 22 25  1  0  0  0  0
 22 23  1  0  0  0  0
 26 31  1  0  0  0  0
 26 27  1  0  0  0  0
 27 28  1  0  0  0  0
 27 35  1  1  0  0  0
 28 32  1  6  0  0  0
 28 29  1  0  0  0  0
 29 30  1  0  0  0  0
 29 33  1  6  0  0  0
 30 34  1  1  0  0  0
 30 31  1  0  0  0  0
 31 25  1  1  0  0  0
 35 36  1  0  0  0  0
M  END
>  <COMPND>
    UNNAMED

>  <AUTHOR>
    GENERATED BY OPEN BABEL 2.4.90

>  <MASTER>
        0    0    0    0    0    0    0    0   36    0   36    0

