__3v0o_A_rec_5c3d_urm_lig_min.pdb
 OpenBabel10181905293D

 36 38  0  0  1  0  0  0  0  0999 V2000
   12.0120  -18.2770    6.8670 P   0  0  1  0  0  0  0  0  0  0  0  0
   11.1100  -17.8370    5.7230 O   0  0  0  0  0  0  0  0  0  0  0  0
   11.6420  -18.0040    8.3060 O   0  0  0  0  0  0  0  0  0  0  0  0
   12.3270  -19.8360    6.7880 O   0  0  0  0  0  0  0  0  0  0  0  0
   12.8020  -20.3570    5.5560 C   0  0  0  0  0  0  0  0  0  0  0  0
   10.3860  -22.9830    5.8240 C   0  0  1  0  0  0  0  0  0  0  0  0
    9.5890  -22.1180    4.8540 C   0  0  1  0  0  0  0  0  0  0  0  0
   10.3340  -20.8160    4.9180 C   0  0  1  0  0  0  0  0  0  0  0  0
   11.7730  -21.3240    4.9990 C   0  0  2  0  0  0  0  0  0  0  0  0
   11.7160  -22.4660    5.8580 O   0  0  0  0  0  0  0  0  0  0  0  0
   10.0690  -19.9590    3.7920 O   0  0  0  0  0  0  0  0  0  0  0  0
    9.6960  -22.6470    3.5210 O   0  0  0  0  0  0  0  0  0  0  0  0
    9.8130  -22.9210    7.1850 N   0  0  0  0  0  0  0  0  0  0  0  0
    8.1460  -23.7090    8.6870 N   0  0  0  0  0  0  0  0  0  0  0  0
    9.7560  -22.1320    9.4380 C   0  0  0  0  0  0  0  0  0  0  0  0
   10.3430  -22.1420    8.1710 C   0  0  0  0  0  0  0  0  0  0  0  0
    8.6870  -23.7200    7.4570 C   0  0  0  0  0  0  0  0  0  0  0  0
    8.1970  -24.4450    6.5640 O   0  0  0  0  0  0  0  0  0  0  0  0
    8.6470  -22.9420    9.6730 C   0  0  0  0  0  0  0  0  0  0  0  0
    8.0910  -22.9560   10.8060 O   0  0  0  0  0  0  0  0  0  0  0  0
   13.4820  -17.6650    6.5680 O   0  0  0  0  0  0  0  0  0  0  0  0
   13.8090  -16.1560    6.1170 P   0  0  1  0  0  0  0  0  0  0  0  0
   13.1530  -15.8380    4.6880 O   0  0  0  0  0  0  0  0  0  0  0  0
   13.4770  -15.1960    7.2040 O   0  0  0  0  0  0  0  0  0  0  0  0
   15.6100  -16.1630    5.9560 C   0  0  0  0  0  0  0  0  0  0  0  0
   15.4450  -13.7800    5.2590 O   0  0  0  0  0  0  0  0  0  0  0  0
   15.9870  -13.1010    6.4050 C   0  0  1  0  0  0  0  0  0  0  0  0
   17.4530  -12.7580    6.1340 C   0  0  1  0  0  0  0  0  0  0  0  0
   18.2200  -14.0580    5.9200 C   0  0  1  0  0  0  0  0  0  0  0  0
   17.5720  -14.9270    4.8390 C   0  0  2  0  0  0  0  0  0  0  0  0
   16.0440  -15.0730    4.9590 C   0  0  1  0  0  0  0  0  0  0  0  0
   17.5380  -11.9430    4.9620 O   0  0  0  0  0  0  0  0  0  0  0  0
   19.5370  -13.7100    5.4680 O   0  0  0  0  0  0  0  0  0  0  0  0
   18.1810  -16.2160    4.8420 O   0  0  0  0  0  0  0  0  0  0  0  0
   15.1440  -11.8830    6.7670 C   0  0  0  0  0  0  0  0  0  0  0  0
   13.8290  -12.3490    7.0970 O   0  0  0  0  0  0  0  0  0  0  0  0
  1  2  2  6  0  0  0
  1 21  1  0  0  0  0
  1  4  1  0  0  0  0
  1  3  1  0  0  0  0
  4  5  1  0  0  0  0
  6  7  1  0  0  0  0
  6 10  1  0  0  0  0
  6 13  1  1  0  0  0
  7 12  1  6  0  0  0
  7  8  1  0  0  0  0
  8 11  1  6  0  0  0
  8  9  1  0  0  0  0
  9  5  1  1  0  0  0
  9 10  1  0  0  0  0
 13 17  1  0  0  0  0
 13 16  1  0  0  0  0
 14 17  1  0  0  0  0
 14 19  1  0  0  0  0
 15 16  2  0  0  0  0
 15 19  1  0  0  0  0
 17 18  2  0  0  0  0
 19 20  2  0  0  0  0
 21 22  1  0  0  0  0
 22 23  2  6  0  0  0
 22 25  1  0  0  0  0
 22 24  1  0  0  0  0
 26 31  1  0  0  0  0
 26 27  1  0  0  0  0
 27 28  1  0  0  0  0
 27 35  1  6  0  0  0
 28 32  1  6  0  0  0
 28 29  1  0  0  0  0
 29 30  1  0  0  0  0
 29 33  1  6  0  0  0
 30 34  1  1  0  0  0
 30 31  1  0  0  0  0
 31 25  1  1  0  0  0
 35 36  1  0  0  0  0
M  END
>  <COMPND>
    UNNAMED

>  <AUTHOR>
    GENERATED BY OPEN BABEL 2.4.90

>  <MASTER>
        0    0    0    0    0    0    0    0   36    0   36    0

