__3v0q_A_rec_1zj2_udp_lig_docked.pdb
 OpenBabel10181917083D

 25 26  0  0  1  0  0  0  0  0999 V2000
   10.6390  -23.2530    6.0970 C   0  0  1  0  0  0  0  0  0  0  0  0
    9.7070  -22.4570    5.1770 C   0  0  2  0  0  0  0  0  0  0  0  0
    9.8710  -22.8820    3.8220 O   0  0  0  0  0  0  0  0  0  0  0  0
   10.2710  -21.0520    5.3630 C   0  0  1  0  0  0  0  0  0  0  0  0
   11.7550  -21.4010    5.2520 C   0  0  2  0  0  0  0  0  0  0  0  0
   11.9110  -22.5790    6.0590 O   0  0  0  0  0  0  0  0  0  0  0  0
    9.8850  -20.2360    4.2530 O   0  0  0  0  0  0  0  0  0  0  0  0
   10.1200  -23.2380    7.4850 N   0  0  0  0  0  0  0  0  0  0  0  0
    8.9730  -23.9820    7.7910 C   0  0  0  0  0  0  0  0  0  0  0  0
    8.4850  -23.9910    9.1050 N   0  0  0  0  0  0  0  0  0  0  0  0
    9.1430  -23.2610   10.1040 C   0  0  0  0  0  0  0  0  0  0  0  0
   10.2800  -22.5210    9.7990 C   0  0  0  0  0  0  0  0  0  0  0  0
   10.7650  -22.5110    8.4950 C   0  0  0  0  0  0  0  0  0  0  0  0
    8.3920  -24.6100    6.9060 O   0  0  0  0  0  0  0  0  0  0  0  0
    8.7120  -23.2720   11.2560 O   0  0  0  0  0  0  0  0  0  0  0  0
   12.6420  -20.2560    5.7390 C   0  0  0  0  0  0  0  0  0  0  0  0
   11.9420  -19.0130    5.6640 O   0  0  0  0  0  0  0  0  0  0  0  0
   12.0320  -17.9870    6.9000 P   0  0  1  0  0  0  0  0  0  0  0  0
   11.7570  -16.5190    6.2970 O   0  0  0  0  0  0  0  0  0  0  0  0
   11.1180  -18.3200    8.0170 O   0  0  0  0  0  0  0  0  0  0  0  0
   13.5800  -18.0300    7.3460 O   0  0  0  0  0  0  0  0  0  0  0  0
   14.7170  -17.1070    6.6760 P   0  0  0  0  0  0  0  0  0  0  0  0
   14.3330  -16.9570    5.1200 O   0  0  0  0  0  0  0  0  0  0  0  0
   14.5100  -15.6500    7.3270 O   0  0  0  0  0  0  0  0  0  0  0  0
   16.1050  -17.5830    6.8740 O   0  0  0  0  0  0  0  0  0  0  0  0
  1  2  1  0  0  0  0
  1  6  1  0  0  0  0
  1  8  1  1  0  0  0
  2  3  1  6  0  0  0
  2  4  1  0  0  0  0
  4  7  1  6  0  0  0
  4  5  1  0  0  0  0
  5 16  1  1  0  0  0
  5  6  1  0  0  0  0
  8  9  1  0  0  0  0
  8 13  1  0  0  0  0
  9 14  2  0  0  0  0
  9 10  1  0  0  0  0
 10 11  1  0  0  0  0
 11 12  1  0  0  0  0
 11 15  2  0  0  0  0
 12 13  2  0  0  0  0
 16 17  1  0  0  0  0
 17 18  1  0  0  0  0
 18 19  2  6  0  0  0
 18 21  1  0  0  0  0
 18 20  1  0  0  0  0
 21 22  1  0  0  0  0
 22 25  2  0  0  0  0
 22 24  1  0  0  0  0
 22 23  1  0  0  0  0
M  END
>  <MODEL>
       3

>  <COMPND>
    UNNAMED

>  <AUTHOR>
    GENERATED BY OPEN BABEL 2.4.90

>  <MASTER>
        0    0    0    0    0    0    0    0   25    0   25    0

