__3v0q_A_rec_5c4e_udp_lig_docked.pdb
 OpenBabel10181917113D

 25 26  0  0  1  0  0  0  0  0999 V2000
   10.5510  -23.1660    6.1120 C   0  0  1  0  0  0  0  0  0  0  0  0
    9.6390  -22.3600    5.2030 C   0  0  2  0  0  0  0  0  0  0  0  0
    9.7200  -22.8030    3.8520 O   0  0  0  0  0  0  0  0  0  0  0  0
   10.2990  -21.0090    5.2900 C   0  0  1  0  0  0  0  0  0  0  0  0
   11.7770  -21.3760    5.2770 C   0  0  2  0  0  0  0  0  0  0  0  0
   11.8510  -22.5780    6.0580 O   0  0  0  0  0  0  0  0  0  0  0  0
    9.8920  -20.1680    4.1910 O   0  0  0  0  0  0  0  0  0  0  0  0
   10.0810  -23.1460    7.4930 N   0  0  0  0  0  0  0  0  0  0  0  0
    8.9750  -23.9640    7.7760 C   0  0  0  0  0  0  0  0  0  0  0  0
    8.4950  -24.0380    9.0310 N   0  0  0  0  0  0  0  0  0  0  0  0
    9.0530  -23.3640   10.0550 C   0  0  0  0  0  0  0  0  0  0  0  0
   10.1630  -22.5520    9.8060 C   0  0  0  0  0  0  0  0  0  0  0  0
   10.6760  -22.4670    8.5050 C   0  0  0  0  0  0  0  0  0  0  0  0
    8.4520  -24.6020    6.8390 O   0  0  0  0  0  0  0  0  0  0  0  0
    8.5520  -23.4770   11.2170 O   0  0  0  0  0  0  0  0  0  0  0  0
   12.7640  -20.3460    5.8300 C   0  0  0  0  0  0  0  0  0  0  0  0
   12.1790  -19.0410    5.7910 O   0  0  0  0  0  0  0  0  0  0  0  0
   11.7810  -18.2360    7.1300 P   0  0  2  0  0  0  0  0  0  0  0  0
   12.0990  -19.1750    8.2810 O   0  0  0  0  0  0  0  0  0  0  0  0
   10.3870  -17.6570    6.9370 O   0  0  0  0  0  0  0  0  0  0  0  0
   12.8700  -17.0280    7.1130 O   0  0  0  0  0  0  0  0  0  0  0  0
   13.3080  -16.1780    5.7860 P   0  0  0  0  0  0  0  0  0  0  0  0
   14.2960  -17.0030    4.9920 O   0  0  0  0  0  0  0  0  0  0  0  0
   13.9120  -14.8430    6.2290 O   0  0  0  0  0  0  0  0  0  0  0  0
   11.9780  -16.0280    5.0660 O   0  0  0  0  0  0  0  0  0  0  0  0
  1  2  1  0  0  0  0
  1  6  1  0  0  0  0
  1  8  1  1  0  0  0
  2  3  1  6  0  0  0
  2  4  1  0  0  0  0
  4  7  1  6  0  0  0
  4  5  1  0  0  0  0
  5 16  1  1  0  0  0
  5  6  1  0  0  0  0
  8  9  1  0  0  0  0
  8 13  1  0  0  0  0
  9 14  2  0  0  0  0
  9 10  1  0  0  0  0
 10 11  1  0  0  0  0
 11 12  1  0  0  0  0
 11 15  2  0  0  0  0
 12 13  2  0  0  0  0
 16 17  1  0  0  0  0
 17 18  1  0  0  0  0
 18 20  2  1  0  0  0
 18 21  1  0  0  0  0
 18 19  1  0  0  0  0
 21 22  1  0  0  0  0
 22 24  2  0  0  0  0
 22 25  1  0  0  0  0
 22 23  1  0  0  0  0
M  END
>  <MODEL>
       2

>  <COMPND>
    UNNAMED

>  <AUTHOR>
    GENERATED BY OPEN BABEL 2.4.90

>  <MASTER>
        0    0    0    0    0    0    0    0   25    0   25    0

