__3v0q_A_rec_3v0q_udp_lig_min.pdb
 OpenBabel10181910393D

 25 26  0  0  1  0  0  0  0  0999 V2000
   10.5020  -23.2010    6.1790 C   0  0  1  0  0  0  0  0  0  0  0  0
    9.6120  -22.3600    5.2820 C   0  0  2  0  0  0  0  0  0  0  0  0
    9.6580  -22.9090    3.9810 O   0  0  0  0  0  0  0  0  0  0  0  0
   10.3300  -21.0350    5.2840 C   0  0  1  0  0  0  0  0  0  0  0  0
   11.7810  -21.4820    5.3030 C   0  0  2  0  0  0  0  0  0  0  0  0
   11.8000  -22.6430    6.1140 O   0  0  0  0  0  0  0  0  0  0  0  0
    9.9990  -20.2890    4.1350 O   0  0  0  0  0  0  0  0  0  0  0  0
    9.9910  -23.2430    7.5730 N   0  0  0  0  0  0  0  0  0  0  0  0
    8.8780  -24.0280    7.8140 C   0  0  0  0  0  0  0  0  0  0  0  0
    8.3490  -24.1300    9.0910 N   0  0  0  0  0  0  0  0  0  0  0  0
    8.9400  -23.4470   10.1420 C   0  0  0  0  0  0  0  0  0  0  0  0
   10.0680  -22.6540    9.8990 C   0  0  0  0  0  0  0  0  0  0  0  0
   10.5220  -22.4790    8.5800 C   0  0  0  0  0  0  0  0  0  0  0  0
    8.3450  -24.6270    6.8840 O   0  0  0  0  0  0  0  0  0  0  0  0
    8.4480  -23.5600   11.2730 O   0  0  0  0  0  0  0  0  0  0  0  0
   12.7250  -20.4190    5.8530 C   0  0  0  0  0  0  0  0  0  0  0  0
   12.1690  -19.9380    7.0540 O   0  0  0  0  0  0  0  0  0  0  0  0
   11.9140  -18.3690    7.1690 P   0  0  2  0  0  0  0  0  0  0  0  0
   11.1580  -18.0400    8.3950 O   0  0  0  0  0  0  0  0  0  0  0  0
   11.2500  -17.9200    5.9240 O   0  0  0  0  0  0  0  0  0  0  0  0
   13.3930  -17.7870    7.2280 O   0  0  0  0  0  0  0  0  0  0  0  0
   13.8360  -16.3640    6.6070 P   0  0  0  0  0  0  0  0  0  0  0  0
   12.8780  -15.3000    6.9920 O   0  0  0  0  0  0  0  0  0  0  0  0
   13.9640  -16.3860    5.1280 O   0  0  0  0  0  0  0  0  0  0  0  0
   15.1470  -16.0820    7.2360 O   0  0  0  0  0  0  0  0  0  0  0  0
  1  2  1  0  0  0  0
  1  6  1  0  0  0  0
  1  8  1  1  0  0  0
  2  3  1  6  0  0  0
  2  4  1  0  0  0  0
  4  7  1  6  0  0  0
  4  5  1  0  0  0  0
  5 16  1  1  0  0  0
  5  6  1  0  0  0  0
  8  9  1  0  0  0  0
  8 13  1  0  0  0  0
  9 14  2  0  0  0  0
  9 10  1  0  0  0  0
 10 11  1  0  0  0  0
 11 12  1  0  0  0  0
 11 15  2  0  0  0  0
 12 13  2  0  0  0  0
 16 17  1  0  0  0  0
 17 18  1  0  0  0  0
 18 20  2  6  0  0  0
 18 21  1  0  0  0  0
 18 19  1  0  0  0  0
 21 22  1  0  0  0  0
 22 24  2  0  0  0  0
 22 25  1  0  0  0  0
 22 23  1  0  0  0  0
M  END
>  <COMPND>
    UNNAMED

>  <AUTHOR>
    GENERATED BY OPEN BABEL 2.4.90

>  <MASTER>
        0    0    0    0    0    0    0    0   25    0   25    0

