__3v0q_A_rec_3v0q_bhe_lig_min.pdb
 OpenBabel10181913453D

 30 31  0  0  1  0  0  0  0  0999 V2000
   17.6720  -10.9980    6.0040 C   0  0  2  0  0  0  0  0  0  0  0  0
   19.0410  -11.1500    5.7370 O   0  0  0  0  0  0  0  0  0  0  0  0
   19.6330  -12.1680    6.5500 C   0  0  1  0  0  0  0  0  0  0  0  0
   18.9560  -13.5150    6.2730 C   0  0  2  0  0  0  0  0  0  0  0  0
   19.1240  -13.8090    4.9070 O   0  0  0  0  0  0  0  0  0  0  0  0
   17.4860  -13.3600    6.6100 C   0  0  2  0  0  0  0  0  0  0  0  0
   16.8270  -14.6180    6.2860 O   0  0  0  0  0  0  0  0  0  0  0  0
   16.9070  -12.2750    5.7380 C   0  0  1  0  0  0  0  0  0  0  0  0
   21.7590  -11.1470    7.0400 O   0  0  0  0  0  0  0  0  0  0  0  0
   21.1350  -12.1700    6.2370 C   0  0  0  0  0  0  0  0  0  0  0  0
   17.1370   -9.9590    5.1520 O   0  0  0  0  0  0  0  0  0  0  0  0
   17.4160   -8.6340    5.6430 C   0  0  0  0  0  0  0  0  0  0  0  0
   17.6680   -7.7210    4.4360 C   0  0  0  0  0  0  0  0  0  0  0  0
   18.5030   -6.4710    4.7970 C   0  0  0  0  0  0  0  0  0  0  0  0
   20.0280   -6.5840    4.6300 C   0  0  0  0  0  0  0  0  0  0  0  0
   20.6130   -6.3240    6.0330 C   0  0  0  0  0  0  0  0  0  0  0  0
   21.8990   -5.4830    6.0650 C   0  0  0  0  0  0  0  0  0  0  0  0
   22.1630   -4.7550    4.7510 C   0  0  0  0  0  0  0  0  0  0  0  0
   23.6460   -4.3720    4.6930 C   0  0  0  0  0  0  0  0  0  0  0  0
   15.5150  -12.0890    6.0320 O   0  0  0  0  0  0  0  0  0  0  0  0
   14.5420  -12.7460    5.2670 C   0  0  1  0  0  0  0  0  0  0  0  0
   13.1710  -12.5380    5.9060 C   0  0  1  0  0  0  0  0  0  0  0  0
   13.1260  -13.0650    7.2530 O   0  0  0  0  0  0  0  0  0  0  0  0
   12.8410  -11.0760    6.0170 C   0  0  2  0  0  0  0  0  0  0  0  0
   11.4840  -10.9980    6.5030 O   0  0  0  0  0  0  0  0  0  0  0  0
   12.8720  -10.4320    4.6620 C   0  0  2  0  0  0  0  0  0  0  0  0
   11.8870  -11.0040    3.7950 O   0  0  0  0  0  0  0  0  0  0  0  0
   14.2870  -10.6170    4.0950 C   0  0  1  0  0  0  0  0  0  0  0  0
   14.5900  -12.0450    3.9920 O   0  0  0  0  0  0  0  0  0  0  0  0
   14.3960   -9.9570    2.7160 C   0  0  0  0  0  0  0  0  0  0  0  0
  1 11  1  6  0  0  0
  1  2  1  0  0  0  0
  1  8  1  0  0  0  0
  2  3  1  0  0  0  0
  3 10  1  6  0  0  0
  3  4  1  0  0  0  0
  4  5  1  6  0  0  0
  4  6  1  0  0  0  0
  6  8  1  0  0  0  0
  6  7  1  6  0  0  0
  8 20  1  1  0  0  0
  9 10  1  0  0  0  0
 11 12  1  0  0  0  0
 12 13  1  0  0  0  0
 13 14  1  0  0  0  0
 14 15  1  0  0  0  0
 15 16  1  0  0  0  0
 16 17  1  0  0  0  0
 17 18  1  0  0  0  0
 18 19  1  0  0  0  0
 21 20  1  1  0  0  0
 21 29  1  0  0  0  0
 21 22  1  0  0  0  0
 22 24  1  0  0  0  0
 22 23  1  1  0  0  0
 24 26  1  0  0  0  0
 24 25  1  6  0  0  0
 26 27  1  6  0  0  0
 26 28  1  0  0  0  0
 28 30  1  6  0  0  0
 28 29  1  0  0  0  0
M  END
>  <COMPND>
    UNNAMED

>  <AUTHOR>
    GENERATED BY OPEN BABEL 2.4.90

>  <MASTER>
        0    0    0    0    0    0    0    0   30    0   30    0

