__3v0q_A_rec_3v0o_bhe_lig_min.pdb
 OpenBabel10171922483D

 30 31  0  0  1  0  0  0  0  0999 V2000
   17.4540  -11.1620    6.0490 C   0  0  2  0  0  0  0  0  0  0  0  0
   18.8470  -11.2960    5.7380 O   0  0  0  0  0  0  0  0  0  0  0  0
   19.4510  -12.3410    6.5130 C   0  0  1  0  0  0  0  0  0  0  0  0
   18.7770  -13.6860    6.2160 C   0  0  2  0  0  0  0  0  0  0  0  0
   18.9570  -14.0110    4.8400 O   0  0  0  0  0  0  0  0  0  0  0  0
   17.3130  -13.5300    6.5800 C   0  0  2  0  0  0  0  0  0  0  0  0
   16.6770  -14.7710    6.2320 O   0  0  0  0  0  0  0  0  0  0  0  0
   16.7090  -12.4330    5.7460 C   0  0  1  0  0  0  0  0  0  0  0  0
   21.5610  -11.3190    6.9380 O   0  0  0  0  0  0  0  0  0  0  0  0
   20.9350  -12.3980    6.1960 C   0  0  0  0  0  0  0  0  0  0  0  0
   16.8810  -10.1200    5.2520 O   0  0  0  0  0  0  0  0  0  0  0  0
   17.1160   -8.7730    5.7430 C   0  0  0  0  0  0  0  0  0  0  0  0
   17.5250   -8.0230    4.4910 C   0  0  0  0  0  0  0  0  0  0  0  0
   18.2780   -6.6800    4.6490 C   0  0  0  0  0  0  0  0  0  0  0  0
   19.7920   -6.7400    4.7590 C   0  0  0  0  0  0  0  0  0  0  0  0
   20.2970   -6.7700    6.1890 C   0  0  0  0  0  0  0  0  0  0  0  0
   21.4910   -5.8190    6.2410 C   0  0  0  0  0  0  0  0  0  0  0  0
   21.6690   -5.1860    4.8560 C   0  0  0  0  0  0  0  0  0  0  0  0
   23.0320   -4.4920    4.7390 C   0  0  0  0  0  0  0  0  0  0  0  0
   15.2840  -12.2560    6.0930 O   0  0  0  0  0  0  0  0  0  0  0  0
   14.3900  -12.8700    5.2450 C   0  0  1  0  0  0  0  0  0  0  0  0
   13.0080  -12.7320    5.8350 C   0  0  1  0  0  0  0  0  0  0  0  0
   12.9710  -13.3640    7.1330 O   0  0  0  0  0  0  0  0  0  0  0  0
   12.6170  -11.2840    6.0090 C   0  0  2  0  0  0  0  0  0  0  0  0
   11.2600  -11.2690    6.4960 O   0  0  0  0  0  0  0  0  0  0  0  0
   12.6550  -10.5920    4.6610 C   0  0  2  0  0  0  0  0  0  0  0  0
   11.6440  -11.1680    3.7460 O   0  0  0  0  0  0  0  0  0  0  0  0
   14.0890  -10.7150    4.1520 C   0  0  1  0  0  0  0  0  0  0  0  0
   14.4530  -12.1420    4.0250 O   0  0  0  0  0  0  0  0  0  0  0  0
   14.2710   -9.9800    2.8240 C   0  0  0  0  0  0  0  0  0  0  0  0
  1 11  1  6  0  0  0
  1  2  1  0  0  0  0
  1  8  1  0  0  0  0
  2  3  1  0  0  0  0
  3 10  1  6  0  0  0
  3  4  1  0  0  0  0
  4  5  1  6  0  0  0
  4  6  1  0  0  0  0
  6  8  1  0  0  0  0
  6  7  1  6  0  0  0
  8 20  1  1  0  0  0
  9 10  1  0  0  0  0
 11 12  1  0  0  0  0
 12 13  1  0  0  0  0
 13 14  1  0  0  0  0
 14 15  1  0  0  0  0
 15 16  1  0  0  0  0
 16 17  1  0  0  0  0
 17 18  1  0  0  0  0
 18 19  1  0  0  0  0
 21 20  1  1  0  0  0
 21 29  1  0  0  0  0
 21 22  1  0  0  0  0
 22 24  1  0  0  0  0
 22 23  1  1  0  0  0
 24 26  1  0  0  0  0
 24 25  1  6  0  0  0
 26 27  1  6  0  0  0
 26 28  1  0  0  0  0
 28 30  1  6  0  0  0
 28 29  1  0  0  0  0
M  END
>  <COMPND>
    UNNAMED

>  <AUTHOR>
    GENERATED BY OPEN BABEL 2.4.90

>  <MASTER>
        0    0    0    0    0    0    0    0   30    0   30    0

