__3zgf_A_rec_5bxc_udp_lig_min.pdb
 OpenBabel10181907163D

 25 26  0  0  1  0  0  0  0  0999 V2000
   10.4340  -23.3670    5.9770 C   0  0  1  0  0  0  0  0  0  0  0  0
    9.5340  -22.4690    5.1620 C   0  0  2  0  0  0  0  0  0  0  0  0
    9.5210  -22.8730    3.8060 O   0  0  0  0  0  0  0  0  0  0  0  0
   10.2890  -21.1790    5.2750 C   0  0  1  0  0  0  0  0  0  0  0  0
   11.7320  -21.6490    5.2060 C   0  0  2  0  0  0  0  0  0  0  0  0
   11.7460  -22.8450    5.9470 O   0  0  0  0  0  0  0  0  0  0  0  0
    9.9650  -20.3150    4.1940 O   0  0  0  0  0  0  0  0  0  0  0  0
    9.9350  -23.4180    7.3560 N   0  0  0  0  0  0  0  0  0  0  0  0
    8.8440  -24.2550    7.6160 C   0  0  0  0  0  0  0  0  0  0  0  0
    8.3710  -24.3590    8.8550 N   0  0  0  0  0  0  0  0  0  0  0  0
    8.9160  -23.7020    9.8760 C   0  0  0  0  0  0  0  0  0  0  0  0
    9.9890  -22.8580    9.6400 C   0  0  0  0  0  0  0  0  0  0  0  0
   10.4880  -22.7500    8.3560 C   0  0  0  0  0  0  0  0  0  0  0  0
    8.3310  -24.8810    6.7300 O   0  0  0  0  0  0  0  0  0  0  0  0
    8.4690  -23.8200   11.0290 O   0  0  0  0  0  0  0  0  0  0  0  0
   12.7580  -20.6740    5.7690 C   0  0  0  0  0  0  0  0  0  0  0  0
   12.3590  -20.1590    6.9940 O   0  0  0  0  0  0  0  0  0  0  0  0
   12.1700  -18.6020    7.2040 P   0  0  1  0  0  0  0  0  0  0  0  0
   11.4240  -18.0390    6.0370 O   0  0  0  0  0  0  0  0  0  0  0  0
   11.6250  -18.4490    8.5690 O   0  0  0  0  0  0  0  0  0  0  0  0
   13.6760  -18.0640    7.2580 O   0  0  0  0  0  0  0  0  0  0  0  0
   14.3070  -16.7500    6.5810 P   0  0  0  0  0  0  0  0  0  0  0  0
   14.3150  -16.9180    5.1240 O   0  0  0  0  0  0  0  0  0  0  0  0
   13.3830  -15.6510    6.9450 O   0  0  0  0  0  0  0  0  0  0  0  0
   15.6780  -16.7370    7.1300 O   0  0  0  0  0  0  0  0  0  0  0  0
  1  2  1  0  0  0  0
  1  6  1  0  0  0  0
  1  8  1  1  0  0  0
  2  3  1  6  0  0  0
  2  4  1  0  0  0  0
  4  7  1  6  0  0  0
  4  5  1  0  0  0  0
  5 16  1  1  0  0  0
  5  6  1  0  0  0  0
  8  9  1  0  0  0  0
  8 13  1  0  0  0  0
  9 14  2  0  0  0  0
  9 10  1  0  0  0  0
 10 11  1  0  0  0  0
 11 12  1  0  0  0  0
 11 15  2  0  0  0  0
 12 13  2  0  0  0  0
 16 17  1  0  0  0  0
 17 18  1  0  0  0  0
 18 19  2  6  0  0  0
 18 21  1  0  0  0  0
 18 20  1  0  0  0  0
 21 22  1  0  0  0  0
 22 23  2  0  0  0  0
 22 25  1  0  0  0  0
 22 24  1  0  0  0  0
M  END
>  <COMPND>
    UNNAMED

>  <AUTHOR>
    GENERATED BY OPEN BABEL 2.4.90

>  <MASTER>
        0    0    0    0    0    0    0    0   25    0   25    0

