__3zgf_A_rec_1wt3_udp_lig_docked.pdb
 OpenBabel10181915483D

 25 26  0  0  1  0  0  0  0  0999 V2000
   10.6150  -23.0560    6.6590 C   0  0  1  0  0  0  0  0  0  0  0  0
    9.7170  -22.2040    5.7230 C   0  0  2  0  0  0  0  0  0  0  0  0
    9.3160  -22.9440    4.5860 O   0  0  0  0  0  0  0  0  0  0  0  0
   10.5950  -20.9840    5.3640 C   0  0  1  0  0  0  0  0  0  0  0  0
   12.0170  -21.4830    5.5400 C   0  0  2  0  0  0  0  0  0  0  0  0
   11.9380  -22.4950    6.5810 O   0  0  0  0  0  0  0  0  0  0  0  0
   10.3580  -20.6490    3.9930 O   0  0  0  0  0  0  0  0  0  0  0  0
   10.1900  -23.1130    8.0940 N   0  0  0  0  0  0  0  0  0  0  0  0
    9.0750  -23.8850    8.4510 C   0  0  0  0  0  0  0  0  0  0  0  0
    8.7190  -23.9090    9.8050 N   0  0  0  0  0  0  0  0  0  0  0  0
    9.3440  -23.2460   10.8930 C   0  0  0  0  0  0  0  0  0  0  0  0
   10.4870  -22.4490   10.5500 C   0  0  0  0  0  0  0  0  0  0  0  0
   10.8960  -22.4050    9.0900 C   0  0  0  0  0  0  0  0  0  0  0  0
    8.4220  -24.5250    7.6140 O   0  0  0  0  0  0  0  0  0  0  0  0
    8.8650  -23.4040   12.0180 O   0  0  0  0  0  0  0  0  0  0  0  0
   12.9750  -20.3620    5.9810 C   0  0  0  0  0  0  0  0  0  0  0  0
   12.2580  -19.1360    6.0940 O   0  0  0  0  0  0  0  0  0  0  0  0
   11.7870  -18.2460    7.3170 P   0  0  1  0  0  0  0  0  0  0  0  0
   10.4090  -17.7620    7.0280 O   0  0  0  0  0  0  0  0  0  0  0  0
   11.9600  -19.0820    8.5570 O   0  0  0  0  0  0  0  0  0  0  0  0
   12.8560  -17.0700    7.1300 O   0  0  0  0  0  0  0  0  0  0  0  0
   13.1070  -15.9840    5.9750 P   0  0  0  0  0  0  0  0  0  0  0  0
   14.1800  -16.6870    4.9870 O   0  0  0  0  0  0  0  0  0  0  0  0
   13.6850  -14.8530    6.7360 O   0  0  0  0  0  0  0  0  0  0  0  0
   11.9290  -15.7510    5.0960 O   0  0  0  0  0  0  0  0  0  0  0  0
  1  6  1  0  0  0  0
  1  2  1  0  0  0  0
  1  8  1  1  0  0  0
  2  4  1  0  0  0  0
  2  3  1  6  0  0  0
  4  5  1  0  0  0  0
  4  7  1  6  0  0  0
  5 16  1  1  0  0  0
  5  6  1  0  0  0  0
  8 13  1  0  0  0  0
  8  9  1  0  0  0  0
  9 14  2  0  0  0  0
  9 10  1  0  0  0  0
 10 11  1  0  0  0  0
 11 12  1  0  0  0  0
 11 15  2  0  0  0  0
 12 13  2  0  0  0  0
 16 17  1  0  0  0  0
 17 18  1  0  0  0  0
 18 21  1  0  0  0  0
 18 20  2  1  0  0  0
 18 19  1  0  0  0  0
 21 22  1  0  0  0  0
 22 23  2  0  0  0  0
 22 24  1  0  0  0  0
 22 25  1  0  0  0  0
M  END
>  <MODEL>
       6

>  <COMPND>
    UNNAMED

>  <AUTHOR>
    GENERATED BY OPEN BABEL 2.4.90

>  <MASTER>
        0    0    0    0    0    0    0    0   25    0   25    0

