__3zgf_A_rec_5c3d_urm_lig_docked.pdb
 OpenBabel10181915533D

 36 38  0  0  1  0  0  0  0  0999 V2000
   11.9250  -17.9810    6.8540 P   0  0  1  0  0  0  0  0  0  0  0  0
   10.5960  -17.5930    7.4850 O   0  0  0  0  0  0  0  0  0  0  0  0
   13.0810  -18.4680    7.6960 O   0  0  0  0  0  0  0  0  0  0  0  0
   11.7270  -19.0760    5.7140 O   0  0  0  0  0  0  0  0  0  0  0  0
   12.5160  -20.2540    5.7770 C   0  0  0  0  0  0  0  0  0  0  0  0
   10.7100  -23.3180    6.1740 C   0  0  1  0  0  0  0  0  0  0  0  0
    9.7210  -22.6600    5.2180 C   0  0  1  0  0  0  0  0  0  0  0  0
   10.1800  -21.2310    5.2330 C   0  0  1  0  0  0  0  0  0  0  0  0
   11.6950  -21.4260    5.2730 C   0  0  2  0  0  0  0  0  0  0  0  0
   11.9040  -22.5350    6.1530 O   0  0  0  0  0  0  0  0  0  0  0  0
    9.7070  -20.4760    4.1030 O   0  0  0  0  0  0  0  0  0  0  0  0
    9.8950  -23.1880    3.8910 O   0  0  0  0  0  0  0  0  0  0  0  0
   10.1780  -23.3420    7.5530 N   0  0  0  0  0  0  0  0  0  0  0  0
    8.5080  -24.1650    9.0330 N   0  0  0  0  0  0  0  0  0  0  0  0
   10.2270  -22.7530    9.8670 C   0  0  0  0  0  0  0  0  0  0  0  0
   10.7780  -22.6840    8.5850 C   0  0  0  0  0  0  0  0  0  0  0  0
    9.0150  -24.0990    7.7910 C   0  0  0  0  0  0  0  0  0  0  0  0
    8.4600  -24.7130    6.8540 O   0  0  0  0  0  0  0  0  0  0  0  0
    9.0790  -23.5170   10.0660 C   0  0  0  0  0  0  0  0  0  0  0  0
    8.5540  -23.6000   11.2100 O   0  0  0  0  0  0  0  0  0  0  0  0
   12.4090  -16.7170    5.9630 O   0  0  0  0  0  0  0  0  0  0  0  0
   13.8610  -16.0250    6.0070 P   0  0  1  0  0  0  0  0  0  0  0  0
   13.8440  -14.6220    5.2280 O   0  0  0  0  0  0  0  0  0  0  0  0
   14.3830  -15.9790    7.4000 O   0  0  0  0  0  0  0  0  0  0  0  0
   14.8950  -17.1970    5.0980 C   0  0  0  0  0  0  0  0  0  0  0  0
   16.6170  -17.3980    6.8830 O   0  0  0  0  0  0  0  0  0  0  0  0
   16.6170  -18.8150    7.1330 C   0  0  1  0  0  0  0  0  0  0  0  0
   17.7770  -19.4560    6.3690 C   0  0  1  0  0  0  0  0  0  0  0  0
   17.5640  -19.2160    4.8790 C   0  0  1  0  0  0  0  0  0  0  0  0
   17.3570  -17.7300    4.5670 C   0  0  2  0  0  0  0  0  0  0  0  0
   16.3690  -17.0080    5.5020 C   0  0  1  0  0  0  0  0  0  0  0  0
   19.0060  -18.8560    6.7880 O   0  0  0  0  0  0  0  0  0  0  0  0
   18.7550  -19.6400    4.2010 O   0  0  0  0  0  0  0  0  0  0  0  0
   16.9330  -17.5870    3.2140 O   0  0  0  0  0  0  0  0  0  0  0  0
   16.6510  -19.1050    8.6290 C   0  0  0  0  0  0  0  0  0  0  0  0
   17.6510  -18.2590    9.2110 O   0  0  0  0  0  0  0  0  0  0  0  0
  1  2  2  1  0  0  0
  1 21  1  0  0  0  0
  1  4  1  0  0  0  0
  1  3  1  0  0  0  0
  4  5  1  0  0  0  0
  6  7  1  0  0  0  0
  6 10  1  0  0  0  0
  6 13  1  1  0  0  0
  7 12  1  6  0  0  0
  7  8  1  0  0  0  0
  8 11  1  6  0  0  0
  8  9  1  0  0  0  0
  9  5  1  1  0  0  0
  9 10  1  0  0  0  0
 13 17  1  0  0  0  0
 13 16  1  0  0  0  0
 14 17  1  0  0  0  0
 14 19  1  0  0  0  0
 15 16  2  0  0  0  0
 15 19  1  0  0  0  0
 17 18  2  0  0  0  0
 19 20  2  0  0  0  0
 21 22  1  0  0  0  0
 22 23  2  6  0  0  0
 22 25  1  0  0  0  0
 22 24  1  0  0  0  0
 26 31  1  0  0  0  0
 26 27  1  0  0  0  0
 27 28  1  0  0  0  0
 27 35  1  1  0  0  0
 28 32  1  1  0  0  0
 28 29  1  0  0  0  0
 29 30  1  0  0  0  0
 29 33  1  6  0  0  0
 30 34  1  6  0  0  0
 30 31  1  0  0  0  0
 31 25  1  6  0  0  0
 35 36  1  0  0  0  0
M  END
>  <MODEL>
       3

>  <COMPND>
    UNNAMED

>  <AUTHOR>
    GENERATED BY OPEN BABEL 2.4.90

>  <MASTER>
        0    0    0    0    0    0    0    0   36    0   36    0

