__3zgf_A_rec_1lzi_udp_lig_min.pdb
 OpenBabel10181913443D

 25 26  0  0  1  0  0  0  0  0999 V2000
   10.3750  -23.2200    6.1200 C   0  0  1  0  0  0  0  0  0  0  0  0
    9.5640  -22.2550    5.2270 C   0  0  2  0  0  0  0  0  0  0  0  0
    9.3860  -22.7960    3.9380 O   0  0  0  0  0  0  0  0  0  0  0  0
   10.4210  -20.9870    5.2230 C   0  0  1  0  0  0  0  0  0  0  0  0
   11.8320  -21.5550    5.2490 C   0  0  2  0  0  0  0  0  0  0  0  0
   11.7250  -22.7220    6.1060 O   0  0  0  0  0  0  0  0  0  0  0  0
   10.1710  -20.2970    3.9960 O   0  0  0  0  0  0  0  0  0  0  0  0
    9.9030  -23.3630    7.5300 N   0  0  0  0  0  0  0  0  0  0  0  0
    8.7990  -24.1930    7.7850 C   0  0  0  0  0  0  0  0  0  0  0  0
    8.3640  -24.3250    9.1080 N   0  0  0  0  0  0  0  0  0  0  0  0
    8.8910  -23.7240   10.2750 C   0  0  0  0  0  0  0  0  0  0  0  0
   10.1330  -22.7820   10.0360 C   0  0  0  0  0  0  0  0  0  0  0  0
   10.5540  -22.6800    8.5840 C   0  0  0  0  0  0  0  0  0  0  0  0
    8.2180  -24.7990    6.8740 O   0  0  0  0  0  0  0  0  0  0  0  0
    8.3470  -23.9790   11.3520 O   0  0  0  0  0  0  0  0  0  0  0  0
   12.8920  -20.6070    5.8530 C   0  0  0  0  0  0  0  0  0  0  0  0
   12.3010  -19.8420    6.8920 O   0  0  0  0  0  0  0  0  0  0  0  0
   12.1990  -18.2920    7.1680 P   0  0  1  0  0  0  0  0  0  0  0  0
   11.5510  -17.6630    5.9830 O   0  0  0  0  0  0  0  0  0  0  0  0
   11.5090  -18.1220    8.4880 O   0  0  0  0  0  0  0  0  0  0  0  0
   13.7560  -17.9710    7.1890 O   0  0  0  0  0  0  0  0  0  0  0  0
   14.5910  -16.7120    6.6600 P   0  0  0  0  0  0  0  0  0  0  0  0
   14.3760  -16.7440    5.0550 O   0  0  0  0  0  0  0  0  0  0  0  0
   15.9700  -17.0650    7.0660 O   0  0  0  0  0  0  0  0  0  0  0  0
   14.0160  -15.4050    7.0650 O   0  0  0  0  0  0  0  0  0  0  0  0
  1  2  1  0  0  0  0
  1  6  1  0  0  0  0
  1  8  1  1  0  0  0
  2  3  1  6  0  0  0
  2  4  1  0  0  0  0
  4  7  1  6  0  0  0
  4  5  1  0  0  0  0
  5 16  1  1  0  0  0
  5  6  1  0  0  0  0
  8  9  1  0  0  0  0
  8 13  1  0  0  0  0
  9 14  2  0  0  0  0
  9 10  1  0  0  0  0
 10 11  1  0  0  0  0
 11 12  1  0  0  0  0
 11 15  2  0  0  0  0
 12 13  2  0  0  0  0
 16 17  1  0  0  0  0
 17 18  1  0  0  0  0
 18 19  2  6  0  0  0
 18 21  1  0  0  0  0
 18 20  1  0  0  0  0
 21 22  1  0  0  0  0
 22 23  2  0  0  0  0
 22 24  1  0  0  0  0
 22 25  1  0  0  0  0
M  END
>  <COMPND>
    UNNAMED

>  <AUTHOR>
    GENERATED BY OPEN BABEL 2.4.90

>  <MASTER>
        0    0    0    0    0    0    0    0   25    0   25    0

