__3zgf_A_rec_2a8u_udp_lig_docked.pdb
 OpenBabel10181915573D

 25 26  0  0  1  0  0  0  0  0999 V2000
   11.0210  -23.2010    6.2130 C   0  0  1  0  0  0  0  0  0  0  0  0
   10.1410  -22.5200    5.1630 C   0  0  2  0  0  0  0  0  0  0  0  0
   10.5490  -22.9220    3.8520 O   0  0  0  0  0  0  0  0  0  0  0  0
   10.4980  -21.0540    5.3960 C   0  0  1  0  0  0  0  0  0  0  0  0
   12.0130  -21.2320    5.4920 C   0  0  2  0  0  0  0  0  0  0  0  0
   12.1640  -22.3410    6.3920 O   0  0  0  0  0  0  0  0  0  0  0  0
   10.1810  -20.2980    4.2240 O   0  0  0  0  0  0  0  0  0  0  0  0
   10.3010  -23.3130    7.5020 N   0  0  0  0  0  0  0  0  0  0  0  0
    9.1590  -24.1220    7.5950 C   0  0  0  0  0  0  0  0  0  0  0  0
    8.5080  -24.2500    8.8270 N   0  0  0  0  0  0  0  0  0  0  0  0
    8.9930  -23.5780    9.9580 C   0  0  0  0  0  0  0  0  0  0  0  0
   10.1230  -22.7730    9.8630 C   0  0  0  0  0  0  0  0  0  0  0  0
   10.7720  -22.6420    8.6400 C   0  0  0  0  0  0  0  0  0  0  0  0
    8.7270  -24.7070    6.6030 O   0  0  0  0  0  0  0  0  0  0  0  0
    8.4120  -23.6950   11.0360 O   0  0  0  0  0  0  0  0  0  0  0  0
   12.7640  -19.9840    5.9600 C   0  0  0  0  0  0  0  0  0  0  0  0
   11.9330  -18.8200    5.9580 O   0  0  0  0  0  0  0  0  0  0  0  0
   12.1400  -17.6470    7.0440 P   0  0  1  0  0  0  0  0  0  0  0  0
   11.6770  -16.2720    6.3450 O   0  0  0  0  0  0  0  0  0  0  0  0
   11.4160  -17.8950    8.3120 O   0  0  0  0  0  0  0  0  0  0  0  0
   13.7280  -17.5140    7.2800 O   0  0  0  0  0  0  0  0  0  0  0  0
   14.6270  -16.5820    6.3240 P   0  0  0  0  0  0  0  0  0  0  0  0
   14.1320  -16.8590    4.8170 O   0  0  0  0  0  0  0  0  0  0  0  0
   14.2110  -15.0620    6.6520 O   0  0  0  0  0  0  0  0  0  0  0  0
   16.0820  -16.8060    6.4840 O   0  0  0  0  0  0  0  0  0  0  0  0
  1  2  1  0  0  0  0
  1  6  1  0  0  0  0
  1  8  1  1  0  0  0
  2  3  1  6  0  0  0
  2  4  1  0  0  0  0
  4  7  1  6  0  0  0
  4  5  1  0  0  0  0
  5 16  1  1  0  0  0
  5  6  1  0  0  0  0
  8  9  1  0  0  0  0
  8 13  1  0  0  0  0
  9 14  2  0  0  0  0
  9 10  1  0  0  0  0
 10 11  1  0  0  0  0
 11 12  1  0  0  0  0
 11 15  2  0  0  0  0
 12 13  2  0  0  0  0
 16 17  1  0  0  0  0
 17 18  1  0  0  0  0
 18 19  2  6  0  0  0
 18 21  1  0  0  0  0
 18 20  1  0  0  0  0
 21 22  1  0  0  0  0
 22 25  2  0  0  0  0
 22 23  1  0  0  0  0
 22 24  1  0  0  0  0
M  END
>  <MODEL>
       7

>  <COMPND>
    UNNAMED

>  <AUTHOR>
    GENERATED BY OPEN BABEL 2.4.90

>  <MASTER>
        0    0    0    0    0    0    0    0   25    0   25    0

