__3zgf_A_rec_1zjp_udp_lig_min.pdb
 OpenBabel10181910403D

 25 26  0  0  1  0  0  0  0  0999 V2000
   10.4770  -23.3200    6.0670 C   0  0  1  0  0  0  0  0  0  0  0  0
    9.6890  -22.3090    5.2290 C   0  0  2  0  0  0  0  0  0  0  0  0
    9.8000  -22.6400    3.8430 O   0  0  0  0  0  0  0  0  0  0  0  0
   10.4650  -21.0270    5.5220 C   0  0  1  0  0  0  0  0  0  0  0  0
   11.8680  -21.6090    5.3490 C   0  0  2  0  0  0  0  0  0  0  0  0
   11.8270  -22.8180    6.1240 O   0  0  0  0  0  0  0  0  0  0  0  0
   10.2140  -20.0740    4.4870 O   0  0  0  0  0  0  0  0  0  0  0  0
    9.9430  -23.3920    7.4480 N   0  0  0  0  0  0  0  0  0  0  0  0
    8.8270  -24.1950    7.7230 C   0  0  0  0  0  0  0  0  0  0  0  0
    8.3620  -24.2930    9.0420 N   0  0  0  0  0  0  0  0  0  0  0  0
    9.0050  -23.5940   10.0730 C   0  0  0  0  0  0  0  0  0  0  0  0
   10.1100  -22.7940    9.7960 C   0  0  0  0  0  0  0  0  0  0  0  0
   10.5730  -22.6950    8.4880 C   0  0  0  0  0  0  0  0  0  0  0  0
    8.2520  -24.8020    6.8210 O   0  0  0  0  0  0  0  0  0  0  0  0
    8.5880  -23.6860   11.2270 O   0  0  0  0  0  0  0  0  0  0  0  0
   12.9950  -20.6650    5.7700 C   0  0  0  0  0  0  0  0  0  0  0  0
   13.4070  -20.8920    7.1200 O   0  0  0  0  0  0  0  0  0  0  0  0
   13.6290  -19.6590    8.1320 P   0  0  1  0  0  0  0  0  0  0  0  0
   13.5720  -18.3130    7.2510 O   0  0  0  0  0  0  0  0  0  0  0  0
   12.6490  -19.6320    9.2400 O   0  0  0  0  0  0  0  0  0  0  0  0
   15.1410  -19.7880    8.6740 O   0  0  0  0  0  0  0  0  0  0  0  0
   16.3230  -18.8480    8.1100 P   0  0  0  0  0  0  0  0  0  0  0  0
   16.2110  -19.4120    6.6050 O   0  0  0  0  0  0  0  0  0  0  0  0
   17.4680  -19.5970    8.9590 O   0  0  0  0  0  0  0  0  0  0  0  0
   15.7990  -17.5200    8.4990 O   0  0  0  0  0  0  0  0  0  0  0  0
  1  2  1  0  0  0  0
  1  6  1  0  0  0  0
  1  8  1  1  0  0  0
  2  3  1  6  0  0  0
  2  4  1  0  0  0  0
  4  7  1  6  0  0  0
  4  5  1  0  0  0  0
  5 16  1  1  0  0  0
  5  6  1  0  0  0  0
  8  9  1  0  0  0  0
  8 13  1  0  0  0  0
  9 14  2  0  0  0  0
  9 10  1  0  0  0  0
 10 11  1  0  0  0  0
 11 12  1  0  0  0  0
 11 15  2  0  0  0  0
 12 13  2  0  0  0  0
 16 17  1  0  0  0  0
 17 18  1  0  0  0  0
 18 19  2  6  0  0  0
 18 21  1  0  0  0  0
 18 20  1  0  0  0  0
 21 22  1  0  0  0  0
 22 23  2  0  0  0  0
 22 25  1  0  0  0  0
 22 24  1  0  0  0  0
M  END
>  <COMPND>
    UNNAMED

>  <AUTHOR>
    GENERATED BY OPEN BABEL 2.4.90

>  <MASTER>
        0    0    0    0    0    0    0    0   25    0   25    0

