__3zgf_A_rec_2rj5_udp_lig_min.pdb
 OpenBabel10181911143D

 25 26  0  0  1  0  0  0  0  0999 V2000
   10.4390  -23.3990    5.9660 C   0  0  1  0  0  0  0  0  0  0  0  0
    9.5570  -22.4990    5.0710 C   0  0  2  0  0  0  0  0  0  0  0  0
    9.5760  -22.8310    3.6450 O   0  0  0  0  0  0  0  0  0  0  0  0
   10.2460  -21.1840    5.2490 C   0  0  1  0  0  0  0  0  0  0  0  0
   11.7110  -21.6190    5.1380 C   0  0  2  0  0  0  0  0  0  0  0  0
   11.7770  -22.8330    5.9250 O   0  0  0  0  0  0  0  0  0  0  0  0
    9.8690  -20.3490    4.1590 O   0  0  0  0  0  0  0  0  0  0  0  0
    9.9530  -23.4500    7.3940 N   0  0  0  0  0  0  0  0  0  0  0  0
    8.8380  -24.2360    7.7040 C   0  0  0  0  0  0  0  0  0  0  0  0
    8.3530  -24.3200    9.0120 N   0  0  0  0  0  0  0  0  0  0  0  0
    8.9760  -23.6140   10.0410 C   0  0  0  0  0  0  0  0  0  0  0  0
   10.0870  -22.8200    9.7570 C   0  0  0  0  0  0  0  0  0  0  0  0
   10.5760  -22.7370    8.4460 C   0  0  0  0  0  0  0  0  0  0  0  0
    8.2830  -24.8580    6.8130 O   0  0  0  0  0  0  0  0  0  0  0  0
    8.5120  -23.7130   11.1870 O   0  0  0  0  0  0  0  0  0  0  0  0
   12.7020  -20.5790    5.6970 C   0  0  0  0  0  0  0  0  0  0  0  0
   12.3910  -20.2300    7.0350 O   0  0  0  0  0  0  0  0  0  0  0  0
   11.9830  -18.7130    7.3810 P   0  0  1  0  0  0  0  0  0  0  0  0
   10.9880  -18.2300    6.3930 O   0  0  0  0  0  0  0  0  0  0  0  0
   11.6200  -18.7120    8.8050 O   0  0  0  0  0  0  0  0  0  0  0  0
   13.3900  -17.9620    7.2150 O   0  0  0  0  0  0  0  0  0  0  0  0
   13.5450  -16.4350    6.7530 P   0  0  0  0  0  0  0  0  0  0  0  0
   12.2390  -15.6150    7.2540 O   0  0  0  0  0  0  0  0  0  0  0  0
   14.8140  -15.8680    7.2620 O   0  0  0  0  0  0  0  0  0  0  0  0
   13.4850  -16.3900    5.1480 O   0  0  0  0  0  0  0  0  0  0  0  0
  1  2  1  0  0  0  0
  1  6  1  0  0  0  0
  1  8  1  1  0  0  0
  2  3  1  6  0  0  0
  2  4  1  0  0  0  0
  4  7  1  6  0  0  0
  4  5  1  0  0  0  0
  5 16  1  1  0  0  0
  5  6  1  0  0  0  0
  8  9  1  0  0  0  0
  8 13  1  0  0  0  0
  9 14  2  0  0  0  0
  9 10  1  0  0  0  0
 10 11  1  0  0  0  0
 11 12  1  0  0  0  0
 11 15  2  0  0  0  0
 12 13  2  0  0  0  0
 16 17  1  0  0  0  0
 17 18  1  0  0  0  0
 18 19  2  6  0  0  0
 18 21  1  0  0  0  0
 18 20  1  0  0  0  0
 21 22  1  0  0  0  0
 22 25  2  0  0  0  0
 22 24  1  0  0  0  0
 22 23  1  0  0  0  0
M  END
>  <COMPND>
    UNNAMED

>  <AUTHOR>
    GENERATED BY OPEN BABEL 2.4.90

>  <MASTER>
        0    0    0    0    0    0    0    0   25    0   25    0

