__3zgf_A_rec_2rj7_gdu_lig_docked.pdb
 OpenBabel10181915513D

 36 38  0  0  1  0  0  0  0  0999 V2000
   11.6590  -18.3160    7.3770 P   0  0  1  0  0  0  0  0  0  0  0  0
   10.5740  -17.3080    7.3640 O   0  0  0  0  0  0  0  0  0  0  0  0
   11.7170  -19.2800    8.4850 O   0  0  0  0  0  0  0  0  0  0  0  0
   11.6140  -19.1160    5.9410 O   0  0  0  0  0  0  0  0  0  0  0  0
   12.4870  -20.2480    5.7380 C   0  0  0  0  0  0  0  0  0  0  0  0
   10.6560  -23.3360    6.1670 C   0  0  1  0  0  0  0  0  0  0  0  0
    9.6620  -22.6400    5.2210 C   0  0  2  0  0  0  0  0  0  0  0  0
    9.8180  -23.1880    3.8970 O   0  0  0  0  0  0  0  0  0  0  0  0
   10.1820  -21.2130    5.2620 C   0  0  1  0  0  0  0  0  0  0  0  0
   11.7060  -21.4720    5.2640 C   0  0  2  0  0  0  0  0  0  0  0  0
   11.8880  -22.5390    6.2180 O   0  0  0  0  0  0  0  0  0  0  0  0
    9.8070  -20.5210    4.0750 O   0  0  0  0  0  0  0  0  0  0  0  0
   10.1120  -23.3850    7.5370 N   0  0  0  0  0  0  0  0  0  0  0  0
    8.9910  -24.2260    7.7520 C   0  0  0  0  0  0  0  0  0  0  0  0
    8.4270  -24.3220    9.0150 N   0  0  0  0  0  0  0  0  0  0  0  0
    8.9420  -23.6450   10.1430 C   0  0  0  0  0  0  0  0  0  0  0  0
   10.1450  -22.7080   10.0290 C   0  0  0  0  0  0  0  0  0  0  0  0
   10.7710  -22.5980    8.6290 C   0  0  0  0  0  0  0  0  0  0  0  0
    8.4990  -24.8400    6.8020 O   0  0  0  0  0  0  0  0  0  0  0  0
    8.3950  -23.7790   11.2470 O   0  0  0  0  0  0  0  0  0  0  0  0
   13.0900  -17.5850    7.2300 O   0  0  0  0  0  0  0  0  0  0  0  0
   13.2250  -16.1090    6.5000 P   0  0  2  0  0  0  0  0  0  0  0  0
   12.6070  -15.1480    7.4460 O   0  0  0  0  0  0  0  0  0  0  0  0
   12.7390  -16.1050    5.0940 O   0  0  0  0  0  0  0  0  0  0  0  0
   14.7900  -15.8610    6.5330 O   0  0  0  0  0  0  0  0  0  0  0  0
   15.9440  -16.3260    5.6570 C   0  0  2  0  0  0  0  0  0  0  0  0
   15.9390  -17.1320    4.3130 C   0  0  1  0  0  0  0  0  0  0  0  0
   15.6100  -18.6190    4.5180 C   0  0  2  0  0  0  0  0  0  0  0  0
   16.5270  -19.2770    5.5710 C   0  0  2  0  0  0  0  0  0  0  0  0
   16.5380  -18.4550    6.8830 C   0  0  2  0  0  0  0  0  0  0  0  0
   15.0840  -16.5220    3.3330 O   0  0  0  0  0  0  0  0  0  0  0  0
   15.7390  -19.2910    3.2690 O   0  0  0  0  0  0  0  0  0  0  0  0
   17.8510  -19.3890    5.0440 O   0  0  0  0  0  0  0  0  0  0  0  0
   16.8360  -17.0670    6.5600 O   0  0  0  0  0  0  0  0  0  0  0  0
   17.6070  -18.8210    7.9530 C   0  0  0  0  0  0  0  0  0  0  0  0
   17.9210  -20.2200    7.7890 O   0  0  0  0  0  0  0  0  0  0  0  0
  1  2  2  1  0  0  0
  1 21  1  0  0  0  0
  1  4  1  0  0  0  0
  1  3  1  0  0  0  0
  4  5  1  0  0  0  0
  6  7  1  0  0  0  0
  6 11  1  0  0  0  0
  6 13  1  1  0  0  0
  7  8  1  6  0  0  0
  7  9  1  0  0  0  0
  9 12  1  6  0  0  0
  9 10  1  0  0  0  0
 10  5  1  1  0  0  0
 10 11  1  0  0  0  0
 13 14  1  0  0  0  0
 13 18  1  0  0  0  0
 14 19  2  0  0  0  0
 14 15  1  0  0  0  0
 15 16  1  0  0  0  0
 16 17  1  0  0  0  0
 16 20  2  0  0  0  0
 17 18  2  0  0  0  0
 21 22  1  0  0  0  0
 22 24  2  6  0  0  0
 22 25  1  0  0  0  0
 22 23  1  0  0  0  0
 26 25  1  1  0  0  0
 26 27  1  0  0  0  0
 26 34  1  0  0  0  0
 27 31  1  6  0  0  0
 27 28  1  0  0  0  0
 28 32  1  6  0  0  0
 28 29  1  0  0  0  0
 29 33  1  6  0  0  0
 29 30  1  0  0  0  0
 30 34  1  0  0  0  0
 30 35  1  1  0  0  0
 35 36  1  0  0  0  0
M  END
>  <MODEL>
       1

>  <COMPND>
    UNNAMED

>  <AUTHOR>
    GENERATED BY OPEN BABEL 2.4.90

>  <MASTER>
        0    0    0    0    0    0    0    0   36    0   36    0

