__3zgf_A_rec_3zgf_udp_lig_min.pdb
 OpenBabel10181913343D

 25 26  0  0  1  0  0  0  0  0999 V2000
   10.4370  -23.3150    6.0140 C   0  0  1  0  0  0  0  0  0  0  0  0
    9.6000  -22.3360    5.2160 C   0  0  2  0  0  0  0  0  0  0  0  0
    9.5410  -22.7640    3.8670 O   0  0  0  0  0  0  0  0  0  0  0  0
   10.4310  -21.0730    5.3080 C   0  0  1  0  0  0  0  0  0  0  0  0
   11.8420  -21.6280    5.2550 C   0  0  2  0  0  0  0  0  0  0  0  0
   11.7690  -22.8150    6.0190 O   0  0  0  0  0  0  0  0  0  0  0  0
   10.1550  -20.2120    4.2390 O   0  0  0  0  0  0  0  0  0  0  0  0
    9.9250  -23.4130    7.4010 N   0  0  0  0  0  0  0  0  0  0  0  0
    8.8390  -24.2350    7.6620 C   0  0  0  0  0  0  0  0  0  0  0  0
    8.3490  -24.3600    8.9450 N   0  0  0  0  0  0  0  0  0  0  0  0
    8.9440  -23.6640    9.9820 C   0  0  0  0  0  0  0  0  0  0  0  0
   10.0390  -22.8340    9.7260 C   0  0  0  0  0  0  0  0  0  0  0  0
   10.4990  -22.6870    8.4170 C   0  0  0  0  0  0  0  0  0  0  0  0
    8.3090  -24.8600    6.7460 O   0  0  0  0  0  0  0  0  0  0  0  0
    8.4960  -23.7820   11.1240 O   0  0  0  0  0  0  0  0  0  0  0  0
   12.8650  -20.6540    5.8270 C   0  0  0  0  0  0  0  0  0  0  0  0
   12.3310  -20.1270    7.0210 O   0  0  0  0  0  0  0  0  0  0  0  0
   12.1690  -18.5460    7.2530 P   0  0  1  0  0  0  0  0  0  0  0  0
   11.5700  -17.8630    6.0830 O   0  0  0  0  0  0  0  0  0  0  0  0
   11.3810  -18.2730    8.4790 O   0  0  0  0  0  0  0  0  0  0  0  0
   13.7010  -18.0620    7.4580 O   0  0  0  0  0  0  0  0  0  0  0  0
   14.5800  -17.1480    6.4550 P   0  0  0  0  0  0  0  0  0  0  0  0
   15.8260  -17.8770    6.1080 O   0  0  0  0  0  0  0  0  0  0  0  0
   14.9240  -15.9030    7.1850 O   0  0  0  0  0  0  0  0  0  0  0  0
   13.8530  -16.7590    5.2250 O   0  0  0  0  0  0  0  0  0  0  0  0
  1  2  1  0  0  0  0
  1  6  1  0  0  0  0
  1  8  1  1  0  0  0
  2  3  1  6  0  0  0
  2  4  1  0  0  0  0
  4  7  1  6  0  0  0
  4  5  1  0  0  0  0
  5 16  1  1  0  0  0
  5  6  1  0  0  0  0
  8  9  1  0  0  0  0
  8 13  1  0  0  0  0
  9 14  2  0  0  0  0
  9 10  1  0  0  0  0
 10 11  1  0  0  0  0
 11 12  1  0  0  0  0
 11 15  2  0  0  0  0
 12 13  2  0  0  0  0
 16 17  1  0  0  0  0
 17 18  1  0  0  0  0
 18 19  2  6  0  0  0
 18 21  1  0  0  0  0
 18 20  1  0  0  0  0
 21 22  1  0  0  0  0
 22 23  2  0  0  0  0
 22 25  1  0  0  0  0
 22 24  1  0  0  0  0
M  END
>  <COMPND>
    UNNAMED

>  <AUTHOR>
    GENERATED BY OPEN BABEL 2.4.90

>  <MASTER>
        0    0    0    0    0    0    0    0   25    0   25    0

