__3zgf_A_rec_3v0q_bhe_lig_min.pdb
 OpenBabel10181913473D

 30 31  0  0  1  0  0  0  0  0999 V2000
   17.0370  -11.2790    5.7840 C   0  0  2  0  0  0  0  0  0  0  0  0
   18.4030  -11.4100    5.4910 O   0  0  0  0  0  0  0  0  0  0  0  0
   19.0080  -12.4760    6.2280 C   0  0  1  0  0  0  0  0  0  0  0  0
   18.3290  -13.8040    5.8750 C   0  0  2  0  0  0  0  0  0  0  0  0
   18.4800  -14.0100    4.4910 O   0  0  0  0  0  0  0  0  0  0  0  0
   16.8640  -13.6750    6.2410 C   0  0  2  0  0  0  0  0  0  0  0  0
   16.2020  -14.9110    5.8460 O   0  0  0  0  0  0  0  0  0  0  0  0
   16.2720  -12.5390    5.4480 C   0  0  1  0  0  0  0  0  0  0  0  0
   21.0410  -11.1880    6.3310 O   0  0  0  0  0  0  0  0  0  0  0  0
   20.5050  -12.4540    5.8970 C   0  0  0  0  0  0  0  0  0  0  0  0
   16.4900  -10.1890    5.0080 O   0  0  0  0  0  0  0  0  0  0  0  0
   16.4760   -8.9410    5.7270 C   0  0  0  0  0  0  0  0  0  0  0  0
   16.5470   -7.8000    4.7040 C   0  0  0  0  0  0  0  0  0  0  0  0
   17.8570   -6.9850    4.8090 C   0  0  0  0  0  0  0  0  0  0  0  0
   19.1720   -7.7580    4.6160 C   0  0  0  0  0  0  0  0  0  0  0  0
   19.9410   -7.5950    5.9430 C   0  0  0  0  0  0  0  0  0  0  0  0
   20.7990   -6.3240    6.0550 C   0  0  0  0  0  0  0  0  0  0  0  0
   21.1710   -5.7400    4.6960 C   0  0  0  0  0  0  0  0  0  0  0  0
   22.4650   -4.9320    4.8480 C   0  0  0  0  0  0  0  0  0  0  0  0
   14.8830  -12.3750    5.7720 O   0  0  0  0  0  0  0  0  0  0  0  0
   13.8970  -12.8400    4.8910 C   0  0  1  0  0  0  0  0  0  0  0  0
   12.5520  -12.8710    5.6100 C   0  0  1  0  0  0  0  0  0  0  0  0
   12.5830  -13.7460    6.7630 O   0  0  0  0  0  0  0  0  0  0  0  0
   12.1810  -11.5100    6.1270 C   0  0  2  0  0  0  0  0  0  0  0  0
   10.8460  -11.6240    6.6640 O   0  0  0  0  0  0  0  0  0  0  0  0
   12.1310  -10.5210    5.0000 C   0  0  2  0  0  0  0  0  0  0  0  0
   11.1260  -10.8770    4.0450 O   0  0  0  0  0  0  0  0  0  0  0  0
   13.5240  -10.4850    4.3540 C   0  0  1  0  0  0  0  0  0  0  0  0
   13.8660  -11.8180    3.8540 O   0  0  0  0  0  0  0  0  0  0  0  0
   13.5490   -9.4720    3.2050 C   0  0  0  0  0  0  0  0  0  0  0  0
  1 11  1  6  0  0  0
  1  2  1  0  0  0  0
  1  8  1  0  0  0  0
  2  3  1  0  0  0  0
  3 10  1  6  0  0  0
  3  4  1  0  0  0  0
  4  5  1  6  0  0  0
  4  6  1  0  0  0  0
  6  8  1  0  0  0  0
  6  7  1  6  0  0  0
  8 20  1  1  0  0  0
  9 10  1  0  0  0  0
 11 12  1  0  0  0  0
 12 13  1  0  0  0  0
 13 14  1  0  0  0  0
 14 15  1  0  0  0  0
 15 16  1  0  0  0  0
 16 17  1  0  0  0  0
 17 18  1  0  0  0  0
 18 19  1  0  0  0  0
 21 20  1  1  0  0  0
 21 29  1  0  0  0  0
 21 22  1  0  0  0  0
 22 24  1  0  0  0  0
 22 23  1  1  0  0  0
 24 26  1  0  0  0  0
 24 25  1  6  0  0  0
 26 27  1  6  0  0  0
 26 28  1  0  0  0  0
 28 30  1  6  0  0  0
 28 29  1  0  0  0  0
M  END
>  <COMPND>
    UNNAMED

>  <AUTHOR>
    GENERATED BY OPEN BABEL 2.4.90

>  <MASTER>
        0    0    0    0    0    0    0    0   30    0   30    0

