__3zgf_A_rec_1lzj_udp_lig_min.pdb
 OpenBabel10181912093D

 25 26  0  0  1  0  0  0  0  0999 V2000
   10.4170  -23.3860    5.9550 C   0  0  1  0  0  0  0  0  0  0  0  0
    9.6180  -22.3960    5.0660 C   0  0  2  0  0  0  0  0  0  0  0  0
    9.5930  -22.7990    3.7020 O   0  0  0  0  0  0  0  0  0  0  0  0
   10.3890  -21.1120    5.2870 C   0  0  1  0  0  0  0  0  0  0  0  0
   11.8350  -21.6360    5.2020 C   0  0  2  0  0  0  0  0  0  0  0  0
   11.7730  -22.9180    5.9040 O   0  0  0  0  0  0  0  0  0  0  0  0
   10.0620  -20.2290    4.2010 O   0  0  0  0  0  0  0  0  0  0  0  0
    9.9420  -23.4500    7.3720 N   0  0  0  0  0  0  0  0  0  0  0  0
    8.8260  -24.2500    7.6440 C   0  0  0  0  0  0  0  0  0  0  0  0
    8.3720  -24.3160    8.9670 N   0  0  0  0  0  0  0  0  0  0  0  0
    8.8940  -23.6670   10.1110 C   0  0  0  0  0  0  0  0  0  0  0  0
   10.1440  -22.7550    9.8520 C   0  0  0  0  0  0  0  0  0  0  0  0
   10.5890  -22.7250    8.4050 C   0  0  0  0  0  0  0  0  0  0  0  0
    8.2560  -24.8840    6.7330 O   0  0  0  0  0  0  0  0  0  0  0  0
    8.3370  -23.8610   11.1950 O   0  0  0  0  0  0  0  0  0  0  0  0
   12.9320  -20.7960    5.9180 C   0  0  0  0  0  0  0  0  0  0  0  0
   12.3340  -20.0790    6.9810 O   0  0  0  0  0  0  0  0  0  0  0  0
   12.1880  -18.5390    7.2390 P   0  0  1  0  0  0  0  0  0  0  0  0
   11.5020  -17.9420    6.0440 O   0  0  0  0  0  0  0  0  0  0  0  0
   11.5390  -18.3730    8.5930 O   0  0  0  0  0  0  0  0  0  0  0  0
   13.7160  -18.0890    7.2520 O   0  0  0  0  0  0  0  0  0  0  0  0
   14.4080  -16.8640    6.4970 P   0  0  0  0  0  0  0  0  0  0  0  0
   15.9050  -16.8360    7.0590 O   0  0  0  0  0  0  0  0  0  0  0  0
   13.6120  -15.6890    6.9330 O   0  0  0  0  0  0  0  0  0  0  0  0
   14.5380  -17.1540    5.0250 O   0  0  0  0  0  0  0  0  0  0  0  0
  1  2  1  0  0  0  0
  1  6  1  0  0  0  0
  1  8  1  1  0  0  0
  2  3  1  6  0  0  0
  2  4  1  0  0  0  0
  4  7  1  6  0  0  0
  4  5  1  0  0  0  0
  5 16  1  1  0  0  0
  5  6  1  0  0  0  0
  8  9  1  0  0  0  0
  8 13  1  0  0  0  0
  9 14  2  0  0  0  0
  9 10  1  0  0  0  0
 10 11  1  0  0  0  0
 11 12  1  0  0  0  0
 11 15  2  0  0  0  0
 12 13  2  0  0  0  0
 16 17  1  0  0  0  0
 17 18  1  0  0  0  0
 18 19  2  6  0  0  0
 18 21  1  0  0  0  0
 18 20  1  0  0  0  0
 21 22  1  0  0  0  0
 22 25  2  0  0  0  0
 22 23  1  0  0  0  0
 22 24  1  0  0  0  0
M  END
>  <COMPND>
    UNNAMED

>  <AUTHOR>
    GENERATED BY OPEN BABEL 2.4.90

>  <MASTER>
        0    0    0    0    0    0    0    0   25    0   25    0

