__3zgf_A_rec_2o1h_udp_lig_min.pdb
 OpenBabel10181913073D

 25 26  0  0  1  0  0  0  0  0999 V2000
   10.4370  -23.4130    5.8910 C   0  0  1  0  0  0  0  0  0  0  0  0
    9.5120  -22.5440    5.0490 C   0  0  2  0  0  0  0  0  0  0  0  0
    9.6160  -22.8540    3.6790 O   0  0  0  0  0  0  0  0  0  0  0  0
   10.1830  -21.2130    5.1860 C   0  0  1  0  0  0  0  0  0  0  0  0
   11.6710  -21.5800    5.1460 C   0  0  2  0  0  0  0  0  0  0  0  0
   11.7330  -22.8340    5.8040 O   0  0  0  0  0  0  0  0  0  0  0  0
    9.7280  -20.4350    4.0970 O   0  0  0  0  0  0  0  0  0  0  0  0
    9.9630  -23.4570    7.2950 N   0  0  0  0  0  0  0  0  0  0  0  0
    8.8470  -24.2400    7.6010 C   0  0  0  0  0  0  0  0  0  0  0  0
    8.4110  -24.2880    8.9460 N   0  0  0  0  0  0  0  0  0  0  0  0
    9.0690  -23.5750    9.9740 C   0  0  0  0  0  0  0  0  0  0  0  0
   10.1840  -22.7890    9.6270 C   0  0  0  0  0  0  0  0  0  0  0  0
   10.4730  -22.6110    8.2610 C   0  0  0  0  0  0  0  0  0  0  0  0
    8.2660  -24.8900    6.7050 O   0  0  0  0  0  0  0  0  0  0  0  0
    8.6710  -23.6110   11.1680 O   0  0  0  0  0  0  0  0  0  0  0  0
   12.6690  -20.6770    5.8650 C   0  0  0  0  0  0  0  0  0  0  0  0
   12.0990  -20.1410    7.0260 O   0  0  0  0  0  0  0  0  0  0  0  0
   12.1750  -18.5540    7.2690 P   0  0  1  0  0  0  0  0  0  0  0  0
   11.5960  -17.8090    6.0960 O   0  0  0  0  0  0  0  0  0  0  0  0
   11.4410  -18.0600    8.4790 O   0  0  0  0  0  0  0  0  0  0  0  0
   13.7700  -18.3490    7.4490 O   0  0  0  0  0  0  0  0  0  0  0  0
   14.6540  -17.2540    6.6330 P   0  0  0  0  0  0  0  0  0  0  0  0
   14.6590  -17.4240    5.1630 O   0  0  0  0  0  0  0  0  0  0  0  0
   14.0140  -15.9320    6.8860 O   0  0  0  0  0  0  0  0  0  0  0  0
   16.0480  -17.3360    7.1820 O   0  0  0  0  0  0  0  0  0  0  0  0
  1  2  1  0  0  0  0
  1  6  1  0  0  0  0
  1  8  1  1  0  0  0
  2  3  1  6  0  0  0
  2  4  1  0  0  0  0
  4  7  1  6  0  0  0
  4  5  1  0  0  0  0
  5  6  1  0  0  0  0
  5 16  1  1  0  0  0
  8  9  1  0  0  0  0
  8 13  1  0  0  0  0
  9 14  2  0  0  0  0
  9 10  1  0  0  0  0
 10 11  1  0  0  0  0
 11 12  1  0  0  0  0
 11 15  2  0  0  0  0
 12 13  1  0  0  0  0
 16 17  1  0  0  0  0
 17 18  1  0  0  0  0
 18 19  2  6  0  0  0
 18 21  1  0  0  0  0
 18 20  1  0  0  0  0
 21 22  1  0  0  0  0
 22 23  2  0  0  0  0
 22 25  1  0  0  0  0
 22 24  1  0  0  0  0
M  END
>  <COMPND>
    UNNAMED

>  <AUTHOR>
    GENERATED BY OPEN BABEL 2.4.90

>  <MASTER>
        0    0    0    0    0    0    0    0   25    0   25    0

