__3zgf_A_rec_2rj0_udp_lig_min.pdb
 OpenBabel10181907563D

 25 26  0  0  1  0  0  0  0  0999 V2000
   10.4540  -23.3720    5.9920 C   0  0  1  0  0  0  0  0  0  0  0  0
    9.5270  -22.5130    5.1150 C   0  0  2  0  0  0  0  0  0  0  0  0
    9.5820  -22.9420    3.7430 O   0  0  0  0  0  0  0  0  0  0  0  0
   10.1870  -21.1720    5.2260 C   0  0  1  0  0  0  0  0  0  0  0  0
   11.6680  -21.5610    5.1640 C   0  0  2  0  0  0  0  0  0  0  0  0
   11.7670  -22.7580    5.9670 O   0  0  0  0  0  0  0  0  0  0  0  0
    9.8550  -20.4090    4.0590 O   0  0  0  0  0  0  0  0  0  0  0  0
    9.9570  -23.4370    7.3940 N   0  0  0  0  0  0  0  0  0  0  0  0
    8.8490  -24.2530    7.6680 C   0  0  0  0  0  0  0  0  0  0  0  0
    8.3570  -24.3550    8.9650 N   0  0  0  0  0  0  0  0  0  0  0  0
    8.9560  -23.6500   10.0020 C   0  0  0  0  0  0  0  0  0  0  0  0
   10.0610  -22.8340    9.7490 C   0  0  0  0  0  0  0  0  0  0  0  0
   10.5690  -22.7250    8.4510 C   0  0  0  0  0  0  0  0  0  0  0  0
    8.2980  -24.8730    6.7700 O   0  0  0  0  0  0  0  0  0  0  0  0
    8.4870  -23.7700   11.1370 O   0  0  0  0  0  0  0  0  0  0  0  0
   12.6920  -20.5610    5.7080 C   0  0  0  0  0  0  0  0  0  0  0  0
   12.3530  -20.1560    6.9710 O   0  0  0  0  0  0  0  0  0  0  0  0
   11.8630  -18.6400    7.2150 P   0  0  1  0  0  0  0  0  0  0  0  0
   10.6420  -18.3760    6.3830 O   0  0  0  0  0  0  0  0  0  0  0  0
   11.8330  -18.4150    8.6710 O   0  0  0  0  0  0  0  0  0  0  0  0
   13.1030  -17.8330    6.6130 O   0  0  0  0  0  0  0  0  0  0  0  0
   13.1210  -16.2450    6.3750 P   0  0  0  0  0  0  0  0  0  0  0  0
   12.2870  -15.4890    7.5380 O   0  0  0  0  0  0  0  0  0  0  0  0
   14.5150  -15.7700    6.2040 O   0  0  0  0  0  0  0  0  0  0  0  0
   12.3010  -15.9970    5.0670 O   0  0  0  0  0  0  0  0  0  0  0  0
  1  2  1  0  0  0  0
  1  6  1  0  0  0  0
  1  8  1  1  0  0  0
  2  3  1  6  0  0  0
  2  4  1  0  0  0  0
  4  7  1  6  0  0  0
  4  5  1  0  0  0  0
  5 16  1  1  0  0  0
  5  6  1  0  0  0  0
  8  9  1  0  0  0  0
  8 13  1  0  0  0  0
  9 14  2  0  0  0  0
  9 10  1  0  0  0  0
 10 11  1  0  0  0  0
 11 12  1  0  0  0  0
 11 15  2  0  0  0  0
 12 13  2  0  0  0  0
 16 17  1  0  0  0  0
 17 18  1  0  0  0  0
 18 19  2  6  0  0  0
 18 21  1  0  0  0  0
 18 20  1  0  0  0  0
 21 22  1  0  0  0  0
 22 25  2  0  0  0  0
 22 24  1  0  0  0  0
 22 23  1  0  0  0  0
M  END
>  <COMPND>
    UNNAMED

>  <AUTHOR>
    GENERATED BY OPEN BABEL 2.4.90

>  <MASTER>
        0    0    0    0    0    0    0    0   25    0   25    0

