__3zgf_A_rec_1zj3_dr2_lig_min.pdb
 OpenBabel10181909313D

 36 38  0  0  1  0  0  0  0  0999 V2000
   17.4140  -11.1250    6.0870 C   0  0  2  0  0  0  0  0  0  0  0  0
   18.7400  -11.3960    5.5970 O   0  0  0  0  0  0  0  0  0  0  0  0
   19.3030  -12.5690    6.2080 C   0  0  1  0  0  0  0  0  0  0  0  0
   18.4480  -13.7910    5.8570 C   0  0  2  0  0  0  0  0  0  0  0  0
   18.4980  -14.0270    4.4470 O   0  0  0  0  0  0  0  0  0  0  0  0
   16.9990  -13.5400    6.2790 C   0  0  2  0  0  0  0  0  0  0  0  0
   16.1830  -14.6390    5.8650 O   0  0  0  0  0  0  0  0  0  0  0  0
   16.4790  -12.2430    5.6500 C   0  0  1  0  0  0  0  0  0  0  0  0
   20.7360  -12.7740    5.7120 C   0  0  0  0  0  0  0  0  0  0  0  0
   21.5300  -11.6360    6.0540 O   0  0  0  0  0  0  0  0  0  0  0  0
   16.9290   -9.8930    5.5300 O   0  0  0  0  0  0  0  0  0  0  0  0
   19.7160   -8.9090    5.9010 O   0  0  0  0  0  0  0  0  0  0  0  0
   18.5360   -8.0880    5.8730 C   0  0  2  0  0  0  0  0  0  0  0  0
   18.7870   -6.6920    6.4550 C   0  0  2  0  0  0  0  0  0  0  0  0
   17.4890   -5.8870    6.5430 C   0  0  2  0  0  0  0  0  0  0  0  0
   17.7830   -4.7350    7.3370 O   0  0  0  0  0  0  0  0  0  0  0  0
   16.4690   -6.6520    7.2080 O   0  0  0  0  0  0  0  0  0  0  0  0
   16.1060   -7.8130    6.4440 C   0  0  1  0  0  0  0  0  0  0  0  0
   17.2770   -8.7840    6.3740 C   0  0  1  0  0  0  0  0  0  0  0  0
   19.7210   -5.9740    5.5760 N   0  0  0  0  0  0  0  0  0  0  0  0
   21.0330   -5.9230    5.7880 C   0  0  0  0  0  0  0  0  0  0  0  0
   21.8350   -5.2450    4.6750 C   0  0  0  0  0  0  0  0  0  0  0  0
   21.6040   -6.4670    6.7330 O   0  0  0  0  0  0  0  0  0  0  0  0
   14.8990   -8.4960    7.0900 C   0  0  0  0  0  0  0  0  0  0  0  0
   15.3460   -9.4990    8.0060 O   0  0  0  0  0  0  0  0  0  0  0  0
   15.1560  -11.9470    6.1220 O   0  0  0  0  0  0  0  0  0  0  0  0
   14.1530  -12.4850    5.2460 C   0  0  2  0  0  0  0  0  0  0  0  0
   14.0790  -11.7130    4.0320 O   0  0  0  0  0  0  0  0  0  0  0  0
   13.7760  -10.3280    4.2700 C   0  0  1  0  0  0  0  0  0  0  0  0
   13.8070   -9.5580    2.9480 C   0  0  0  0  0  0  0  0  0  0  0  0
   12.3990  -10.1980    4.9280 C   0  0  1  0  0  0  0  0  0  0  0  0
   11.3830  -10.6750    4.0390 O   0  0  0  0  0  0  0  0  0  0  0  0
   12.3670  -11.0080    6.2250 C   0  0  1  0  0  0  0  0  0  0  0  0
   11.0420  -10.9970    6.7630 O   0  0  0  0  0  0  0  0  0  0  0  0
   12.7990  -12.4530    5.9600 C   0  0  2  0  0  0  0  0  0  0  0  0
   12.8760  -13.1780    7.1900 O   0  0  0  0  0  0  0  0  0  0  0  0
  1  8  1  0  0  0  0
  1 11  1  6  0  0  0
  1  2  1  0  0  0  0
  2  3  1  0  0  0  0
  3  4  1  0  0  0  0
  3  9  1  6  0  0  0
  4  5  1  6  0  0  0
  4  6  1  0  0  0  0
  6  8  1  0  0  0  0
  6  7  1  6  0  0  0
  8 26  1  1  0  0  0
  9 10  1  0  0  0  0
 13 12  1  1  0  0  0
 13 19  1  0  0  0  0
 13 14  1  0  0  0  0
 14 20  1  6  0  0  0
 14 15  1  0  0  0  0
 15 17  1  0  0  0  0
 15 16  1  1  0  0  0
 17 18  1  0  0  0  0
 18 19  1  0  0  0  0
 18 24  1  1  0  0  0
 19 11  1  6  0  0  0
 20 21  1  0  0  0  0
 21 22  1  0  0  0  0
 21 23  2  0  0  0  0
 24 25  1  0  0  0  0
 27 26  1  1  0  0  0
 27 28  1  0  0  0  0
 27 35  1  0  0  0  0
 28 29  1  0  0  0  0
 29 30  1  6  0  0  0
 29 31  1  0  0  0  0
 31 32  1  6  0  0  0
 31 33  1  0  0  0  0
 33 35  1  0  0  0  0
 33 34  1  6  0  0  0
 35 36  1  1  0  0  0
M  END
>  <COMPND>
    UNNAMED

>  <AUTHOR>
    GENERATED BY OPEN BABEL 2.4.90

>  <MASTER>
        0    0    0    0    0    0    0    0   36    0   36    0

