__3zgf_A_rec_1zj2_udp_lig_min.pdb
 OpenBabel10181912533D

 25 26  0  0  1  0  0  0  0  0999 V2000
   10.4150  -23.4720    5.9170 C   0  0  1  0  0  0  0  0  0  0  0  0
    9.5430  -22.5320    5.0790 C   0  0  2  0  0  0  0  0  0  0  0  0
    9.6150  -22.8940    3.6970 O   0  0  0  0  0  0  0  0  0  0  0  0
   10.2610  -21.2060    5.3150 C   0  0  1  0  0  0  0  0  0  0  0  0
   11.6940  -21.7030    5.1270 C   0  0  2  0  0  0  0  0  0  0  0  0
   11.7490  -22.9350    5.8650 O   0  0  0  0  0  0  0  0  0  0  0  0
    9.9280  -20.2930    4.2660 O   0  0  0  0  0  0  0  0  0  0  0  0
    9.9470  -23.4810    7.3240 N   0  0  0  0  0  0  0  0  0  0  0  0
    8.8200  -24.2420    7.6620 C   0  0  0  0  0  0  0  0  0  0  0  0
    8.3820  -24.2730    8.9930 N   0  0  0  0  0  0  0  0  0  0  0  0
    9.0680  -23.5490    9.9760 C   0  0  0  0  0  0  0  0  0  0  0  0
   10.1860  -22.7930    9.6390 C   0  0  0  0  0  0  0  0  0  0  0  0
   10.6220  -22.7600    8.3190 C   0  0  0  0  0  0  0  0  0  0  0  0
    8.2130  -24.8650    6.7900 O   0  0  0  0  0  0  0  0  0  0  0  0
    8.6810  -23.5800   11.1430 O   0  0  0  0  0  0  0  0  0  0  0  0
   12.7150  -20.6880    5.6390 C   0  0  0  0  0  0  0  0  0  0  0  0
   12.3840  -20.2700    6.9650 O   0  0  0  0  0  0  0  0  0  0  0  0
   12.2590  -18.6980    7.2820 P   0  0  1  0  0  0  0  0  0  0  0  0
   11.4890  -18.0390    6.0300 O   0  0  0  0  0  0  0  0  0  0  0  0
   11.5930  -18.4030    8.5720 O   0  0  0  0  0  0  0  0  0  0  0  0
   13.7750  -18.1570    7.2410 O   0  0  0  0  0  0  0  0  0  0  0  0
   14.2050  -16.7900    6.5060 P   0  0  0  0  0  0  0  0  0  0  0  0
   13.1690  -15.6590    6.9920 O   0  0  0  0  0  0  0  0  0  0  0  0
   15.6270  -16.3970    7.1500 O   0  0  0  0  0  0  0  0  0  0  0  0
   14.2980  -16.8770    5.0300 O   0  0  0  0  0  0  0  0  0  0  0  0
  1  2  1  0  0  0  0
  1  6  1  0  0  0  0
  1  8  1  1  0  0  0
  2  3  1  6  0  0  0
  2  4  1  0  0  0  0
  4  7  1  6  0  0  0
  4  5  1  0  0  0  0
  5 16  1  1  0  0  0
  5  6  1  0  0  0  0
  8  9  1  0  0  0  0
  8 13  1  0  0  0  0
  9 14  2  0  0  0  0
  9 10  1  0  0  0  0
 10 11  1  0  0  0  0
 11 12  1  0  0  0  0
 11 15  2  0  0  0  0
 12 13  2  0  0  0  0
 16 17  1  0  0  0  0
 17 18  1  0  0  0  0
 18 19  2  6  0  0  0
 18 21  1  0  0  0  0
 18 20  1  0  0  0  0
 21 22  1  0  0  0  0
 22 25  2  0  0  0  0
 22 24  1  0  0  0  0
 22 23  1  0  0  0  0
M  END
>  <COMPND>
    UNNAMED

>  <AUTHOR>
    GENERATED BY OPEN BABEL 2.4.90

>  <MASTER>
        0    0    0    0    0    0    0    0   25    0   25    0

