__3zgg_A_rec_2rj1_bhe_lig_min.pdb
 OpenBabel10181901293D

 28 29  0  0  1  0  0  0  0  0999 V2000
   17.4270  -11.0840    6.0460 C   0  0  2  0  0  0  0  0  0  0  0  0
   18.8250  -11.3270    5.7110 O   0  0  0  0  0  0  0  0  0  0  0  0
   19.3900  -12.3350    6.5540 C   0  0  1  0  0  0  0  0  0  0  0  0
   18.6600  -13.6690    6.3270 C   0  0  2  0  0  0  0  0  0  0  0  0
   18.7500  -14.0410    4.9430 O   0  0  0  0  0  0  0  0  0  0  0  0
   17.1740  -13.4850    6.6600 C   0  0  2  0  0  0  0  0  0  0  0  0
   16.4790  -14.6930    6.3700 O   0  0  0  0  0  0  0  0  0  0  0  0
   16.5750  -12.3290    5.8360 C   0  0  1  0  0  0  0  0  0  0  0  0
   21.6240  -11.3560    6.9410 O   0  0  0  0  0  0  0  0  0  0  0  0
   20.9230  -12.4350    6.2800 C   0  0  0  0  0  0  0  0  0  0  0  0
   16.9520  -10.0240    5.2450 O   0  0  0  0  0  0  0  0  0  0  0  0
   17.8420   -8.8920    5.3210 C   0  0  0  0  0  0  0  0  0  0  0  0
   17.1440   -7.5860    5.7070 C   0  0  0  0  0  0  0  0  0  0  0  0
   15.9420   -7.7920    6.6250 C   0  0  0  0  0  0  0  0  0  0  0  0
   15.8170   -6.6510    7.6360 C   0  0  0  0  0  0  0  0  0  0  0  0
   14.0470   -5.6270    9.0870 C   0  0  0  0  0  0  0  0  0  0  0  0
   14.7420   -6.9310    8.6850 C   0  0  0  0  0  0  0  0  0  0  0  0
   15.2250  -12.0140    6.2770 O   0  0  0  0  0  0  0  0  0  0  0  0
   14.2010  -12.6570    5.5160 C   0  0  1  0  0  0  0  0  0  0  0  0
   12.8790  -11.9640    5.9250 C   0  0  1  0  0  0  0  0  0  0  0  0
   12.7570  -11.9180    7.3480 O   0  0  0  0  0  0  0  0  0  0  0  0
   12.8710  -10.5130    5.3870 C   0  0  2  0  0  0  0  0  0  0  0  0
   11.6030   -9.8760    5.6560 O   0  0  0  0  0  0  0  0  0  0  0  0
   13.1690  -10.4950    3.8730 C   0  0  2  0  0  0  0  0  0  0  0  0
   12.0920  -11.1340    3.1740 O   0  0  0  0  0  0  0  0  0  0  0  0
   14.5090  -11.1880    3.5710 C   0  0  1  0  0  0  0  0  0  0  0  0
   14.4670  -12.5610    4.0850 O   0  0  0  0  0  0  0  0  0  0  0  0
   14.8290  -11.2200    2.0790 C   0  0  0  0  0  0  0  0  0  0  0  0
  1 11  1  6  0  0  0
  1  8  1  0  0  0  0
  1  2  1  0  0  0  0
  2  3  1  0  0  0  0
  3  4  1  0  0  0  0
  3 10  1  6  0  0  0
  4  5  1  6  0  0  0
  4  6  1  0  0  0  0
  6  8  1  0  0  0  0
  6  7  1  6  0  0  0
  8 18  1  1  0  0  0
  9 10  1  0  0  0  0
 11 12  1  0  0  0  0
 12 13  1  0  0  0  0
 13 14  1  0  0  0  0
 14 15  1  0  0  0  0
 15 17  1  0  0  0  0
 16 17  1  0  0  0  0
 19 18  1  1  0  0  0
 19 27  1  0  0  0  0
 19 20  1  0  0  0  0
 20 22  1  0  0  0  0
 20 21  1  1  0  0  0
 22 24  1  0  0  0  0
 22 23  1  6  0  0  0
 24 25  1  6  0  0  0
 24 26  1  0  0  0  0
 26 28  1  6  0  0  0
 26 27  1  0  0  0  0
M  END
>  <COMPND>
    UNNAMED

>  <AUTHOR>
    GENERATED BY OPEN BABEL 2.4.90

>  <MASTER>
        0    0    0    0    0    0    0    0   28    0   28    0

