__3zgg_A_rec_3v0l_2gw_lig_min.pdb
 OpenBabel10181906533D

 42 45  0  0  1  0  0  0  0  0999 V2000
   11.6720  -19.4170    6.9450 O   0  0  0  0  0  0  0  0  0  0  0  0
   11.6660  -17.8840    6.9070 P   0  0  1  0  0  0  0  0  0  0  0  0
   11.8330  -17.4220    5.5160 O   0  0  0  0  0  0  0  0  0  0  0  0
   10.3890  -17.3360    7.5210 O   0  0  0  0  0  0  0  0  0  0  0  0
   12.8760  -17.4040    7.8600 O   0  0  0  0  0  0  0  0  0  0  0  0
   14.0430  -16.3490    7.6420 P   0  0  1  0  0  0  0  0  0  0  0  0
   13.6980  -14.9580    7.3140 O   0  0  0  0  0  0  0  0  0  0  0  0
   14.9860  -16.4820    8.8030 O   0  0  0  0  0  0  0  0  0  0  0  0
   14.7540  -17.1070    6.4110 O   0  0  0  0  0  0  0  0  0  0  0  0
   15.9230  -16.7990    5.8320 C   0  0  1  0  0  0  0  0  0  0  0  0
   16.9600  -17.3980    6.6810 O   0  0  0  0  0  0  0  0  0  0  0  0
   16.8760  -18.7760    6.7580 C   0  0  1  0  0  0  0  0  0  0  0  0
   16.8400  -19.4370    5.3700 C   0  0  2  0  0  0  0  0  0  0  0  0
   18.0960  -19.3870    4.6850 O   0  0  0  0  0  0  0  0  0  0  0  0
   15.7650  -18.8120    4.5020 C   0  0  2  0  0  0  0  0  0  0  0  0
   15.7560  -19.3680    3.1370 O   0  0  0  0  0  0  0  0  0  0  0  0
   16.0290  -17.4160    4.4640 C   0  0  1  0  0  0  0  0  0  0  0  0
   15.1400  -16.6640    3.6140 O   0  0  0  0  0  0  0  0  0  0  0  0
   18.0840  -19.0840    7.6540 C   0  0  0  0  0  0  0  0  0  0  0  0
   18.6440  -20.3120    7.4560 O   0  0  0  0  0  0  0  0  0  0  0  0
   12.4700  -20.1870    6.0490 C   0  0  0  0  0  0  0  0  0  0  0  0
   10.6310  -23.3060    6.1390 C   0  0  2  0  0  0  0  0  0  0  0  0
   11.8680  -22.5240    6.2430 O   0  0  0  0  0  0  0  0  0  0  0  0
    9.7450  -22.5920    5.1940 C   0  0  2  0  0  0  0  0  0  0  0  0
    9.9370  -23.1610    3.9110 O   0  0  0  0  0  0  0  0  0  0  0  0
   10.2450  -21.2070    5.2850 C   0  0  2  0  0  0  0  0  0  0  0  0
    9.7680  -20.4920    4.1830 O   0  0  0  0  0  0  0  0  0  0  0  0
   11.7390  -21.3480    5.4050 C   0  0  1  0  0  0  0  0  0  0  0  0
   10.1680  -22.8520    9.8520 C   0  0  0  0  0  0  0  0  0  0  0  0
   10.7230  -22.7100    8.5750 C   0  0  0  0  0  0  0  0  0  0  0  0
    8.9920  -23.6390    9.9910 C   0  0  0  0  0  0  0  0  0  0  0  0
    8.3310  -23.8520   11.2110 O   0  0  0  0  0  0  0  0  0  0  0  0
    8.3830  -24.2340    8.9390 N   0  0  0  0  0  0  0  0  0  0  0  0
    8.9680  -24.0810    7.7130 C   0  0  0  0  0  0  0  0  0  0  0  0
    8.4810  -24.7010    6.7680 O   0  0  0  0  0  0  0  0  0  0  0  0
   10.0880  -23.3860    7.5260 N   0  0  0  0  0  0  0  0  0  0  0  0
   10.4920  -20.9040   11.4650 C   0  0  0  0  0  0  0  0  0  0  0  0
   11.0540  -20.2970   12.5930 C   0  0  0  0  0  0  0  0  0  0  0  0
   12.0190  -21.0120   13.3060 C   0  0  0  0  0  0  0  0  0  0  0  0
   12.3920  -22.2960   12.9080 C   0  0  0  0  0  0  0  0  0  0  0  0
   11.8050  -22.8920   11.7800 C   0  0  0  0  0  0  0  0  0  0  0  0
   10.8370  -22.1750   11.0960 C   0  0  0  0  0  0  0  0  0  0  0  0
  1 21  1  0  0  0  0
  1  2  1  0  0  0  0
  2  3  2  6  0  0  0
  2  5  1  0  0  0  0
  2  4  1  0  0  0  0
  5  6  1  0  0  0  0
  6  7  2  6  0  0  0
  6  9  1  0  0  0  0
  6  8  1  0  0  0  0
 10  9  1  1  0  0  0
 10 17  1  0  0  0  0
 10 11  1  0  0  0  0
 11 12  1  0  0  0  0
 12 13  1  0  0  0  0
 12 19  1  1  0  0  0
 13 15  1  0  0  0  0
 13 14  1  6  0  0  0
 15 16  1  6  0  0  0
 15 17  1  0  0  0  0
 17 18  1  6  0  0  0
 19 20  1  0  0  0  0
 22 24  1  0  0  0  0
 22 23  1  0  0  0  0
 22 36  1  1  0  0  0
 23 28  1  0  0  0  0
 24 25  1  6  0  0  0
 24 26  1  0  0  0  0
 26 27  1  6  0  0  0
 26 28  1  0  0  0  0
 28 21  1  1  0  0  0
 29 30  2  0  0  0  0
 29 31  1  0  0  0  0
 29 42  1  0  0  0  0
 30 36  1  0  0  0  0
 31 33  1  0  0  0  0
 31 32  2  0  0  0  0
 33 34  1  0  0  0  0
 34 35  2  0  0  0  0
 34 36  1  0  0  0  0
 37 42  2  0  0  0  0
 37 38  1  0  0  0  0
 38 39  2  0  0  0  0
 39 40  1  0  0  0  0
 40 41  2  0  0  0  0
 41 42  1  0  0  0  0
M  END
>  <COMPND>
    UNNAMED

>  <AUTHOR>
    GENERATED BY OPEN BABEL 2.4.90

>  <MASTER>
        0    0    0    0    0    0    0    0   42    0   42    0

