__3zgg_A_rec_5c1l_da8_lig_min.pdb
 OpenBabel10181911493D

 27 28  0  0  1  0  0  0  0  0999 V2000
   17.6770  -10.8860    6.1310 C   0  0  2  0  0  0  0  0  0  0  0  0
   19.0020  -11.2530    5.7530 O   0  0  0  0  0  0  0  0  0  0  0  0
   19.4850  -12.2490    6.5870 C   0  0  1  0  0  0  0  0  0  0  0  0
   18.6910  -13.5400    6.3230 C   0  0  2  0  0  0  0  0  0  0  0  0
   18.7830  -14.0020    4.9540 O   0  0  0  0  0  0  0  0  0  0  0  0
   17.2190  -13.2520    6.6510 C   0  0  0  0  0  0  0  0  0  0  0  0
   16.7510  -12.0430    5.8520 C   0  0  1  0  0  0  0  0  0  0  0  0
   20.9760  -12.4430    6.2730 C   0  0  0  0  0  0  0  0  0  0  0  0
   21.7140  -11.3810    6.9250 O   0  0  0  0  0  0  0  0  0  0  0  0
   17.2700   -9.8630    5.3330 O   0  0  0  0  0  0  0  0  0  0  0  0
   18.1040   -8.6690    5.5310 C   0  0  0  0  0  0  0  0  0  0  0  0
   18.0390   -7.7850    4.2860 C   0  0  0  0  0  0  0  0  0  0  0  0
   16.6860   -7.7860    3.5770 C   0  0  0  0  0  0  0  0  0  0  0  0
   15.9930   -6.3980    3.5330 C   0  0  0  0  0  0  0  0  0  0  0  0
   15.8280   -4.1440    4.7150 C   0  0  0  0  0  0  0  0  0  0  0  0
   16.1280   -5.6470    4.8590 C   0  0  0  0  0  0  0  0  0  0  0  0
   15.3900  -11.7120    6.2410 O   0  0  0  0  0  0  0  0  0  0  0  0
   14.4030  -12.4300    5.4920 C   0  0  2  0  0  0  0  0  0  0  0  0
   14.6500  -12.2870    4.1200 O   0  0  0  0  0  0  0  0  0  0  0  0
   14.5860  -10.9100    3.6120 C   0  0  1  0  0  0  0  0  0  0  0  0
   14.9250  -10.9420    2.1240 C   0  0  0  0  0  0  0  0  0  0  0  0
   13.2100  -10.3300    3.9310 C   0  0  1  0  0  0  0  0  0  0  0  0
   12.1980  -10.9840    3.1640 O   0  0  0  0  0  0  0  0  0  0  0  0
   12.9440  -10.4450    5.4250 C   0  0  1  0  0  0  0  0  0  0  0  0
   11.6480   -9.8850    5.7190 O   0  0  0  0  0  0  0  0  0  0  0  0
   13.0250  -11.8990    5.8650 C   0  0  2  0  0  0  0  0  0  0  0  0
   12.8730  -11.9820    7.2810 O   0  0  0  0  0  0  0  0  0  0  0  0
  1 10  1  6  0  0  0
  1  2  1  0  0  0  0
  1  7  1  0  0  0  0
  2  3  1  0  0  0  0
  3  8  1  6  0  0  0
  3  4  1  0  0  0  0
  4  5  1  6  0  0  0
  4  6  1  0  0  0  0
  6  7  1  0  0  0  0
  7 17  1  1  0  0  0
  8  9  1  0  0  0  0
 10 11  1  0  0  0  0
 11 12  1  0  0  0  0
 12 13  1  0  0  0  0
 13 14  1  0  0  0  0
 14 16  1  0  0  0  0
 15 16  1  0  0  0  0
 18 17  1  1  0  0  0
 18 19  1  0  0  0  0
 18 26  1  0  0  0  0
 19 20  1  0  0  0  0
 20 21  1  6  0  0  0
 20 22  1  0  0  0  0
 22 23  1  6  0  0  0
 22 24  1  0  0  0  0
 24 26  1  0  0  0  0
 24 25  1  6  0  0  0
 26 27  1  1  0  0  0
M  END
>  <COMPND>
    UNNAMED

>  <AUTHOR>
    GENERATED BY OPEN BABEL 2.4.90

>  <MASTER>
        0    0    0    0    0    0    0    0   27    0   27    0

