__3zgg_A_rec_5c4e_4ya_lig_min.pdb
 OpenBabel10181906493D

 28 29  0  0  1  0  0  0  0  0999 V2000
   17.5420  -11.0400    6.1250 C   0  0  2  0  0  0  0  0  0  0  0  0
   18.8730  -11.3380    5.7220 O   0  0  0  0  0  0  0  0  0  0  0  0
   19.4850  -12.2990    6.5770 C   0  0  1  0  0  0  0  0  0  0  0  0
   18.7620  -13.6520    6.3880 C   0  0  2  0  0  0  0  0  0  0  0  0
   18.8120  -14.0880    4.9820 O   0  0  0  0  0  0  0  0  0  0  0  0
   17.2570  -13.4880    6.7710 C   0  0  2  0  0  0  0  0  0  0  0  0
   16.5380  -14.7010    6.4600 O   0  0  0  0  0  0  0  0  0  0  0  0
   16.6310  -12.2910    5.9950 C   0  0  1  0  0  0  0  0  0  0  0  0
   21.6900  -11.4240    6.8990 O   0  0  0  0  0  0  0  0  0  0  0  0
   20.9620  -12.4270    6.1750 C   0  0  0  0  0  0  0  0  0  0  0  0
   17.0240  -10.0570    5.2770 O   0  0  0  0  0  0  0  0  0  0  0  0
   17.4150   -8.7320    5.7640 C   0  0  0  0  0  0  0  0  0  0  0  0
   16.2350   -7.8410    6.0980 C   0  0  0  0  0  0  0  0  0  0  0  0
   15.3790   -8.3900    7.2280 C   0  0  0  0  0  0  0  0  0  0  0  0
   15.0430   -7.3460    8.3100 C   0  0  0  0  0  0  0  0  0  0  0  0
   12.8950   -6.4440    9.3510 C   0  0  0  0  0  0  0  0  0  0  0  0
   13.7360   -7.6940    9.0150 C   0  0  0  0  0  0  0  0  0  0  0  0
   15.2890  -12.0040    6.5050 O   0  0  0  0  0  0  0  0  0  0  0  0
   14.2360  -12.5380    5.7240 C   0  0  1  0  0  0  0  0  0  0  0  0
   12.9590  -12.3750    6.5470 C   0  0  1  0  0  0  0  0  0  0  0  0
   13.1890  -12.8670    7.8770 O   0  0  0  0  0  0  0  0  0  0  0  0
   12.6370  -10.8650    6.6260 C   0  0  2  0  0  0  0  0  0  0  0  0
   11.3660  -10.7050    7.3040 O   0  0  0  0  0  0  0  0  0  0  0  0
   12.5480  -10.2660    5.2390 C   0  0  2  0  0  0  0  0  0  0  0  0
   11.4580  -10.8460    4.5030 O   0  0  0  0  0  0  0  0  0  0  0  0
   13.8590  -10.4420    4.4620 C   0  0  1  0  0  0  0  0  0  0  0  0
   14.1540  -11.8720    4.4750 O   0  0  0  0  0  0  0  0  0  0  0  0
   13.8600   -9.9920    3.0160 C   0  0  0  0  0  0  0  0  0  0  0  0
  1 11  1  6  0  0  0
  1  2  1  0  0  0  0
  1  8  1  0  0  0  0
  2  3  1  0  0  0  0
  3  4  1  0  0  0  0
  3 10  1  6  0  0  0
  4  5  1  6  0  0  0
  4  6  1  0  0  0  0
  6  8  1  0  0  0  0
  6  7  1  6  0  0  0
  8 18  1  1  0  0  0
  9 10  1  0  0  0  0
 11 12  1  0  0  0  0
 12 13  1  0  0  0  0
 13 14  1  0  0  0  0
 14 15  1  0  0  0  0
 15 17  1  0  0  0  0
 16 17  1  0  0  0  0
 19 18  1  1  0  0  0
 19 27  1  0  0  0  0
 19 20  1  0  0  0  0
 20 22  1  0  0  0  0
 20 21  1  1  0  0  0
 22 24  1  0  0  0  0
 22 23  1  6  0  0  0
 24 25  1  6  0  0  0
 24 26  1  0  0  0  0
 26 28  1  6  0  0  0
 26 27  1  0  0  0  0
M  END
>  <COMPND>
    UNNAMED

>  <AUTHOR>
    GENERATED BY OPEN BABEL 2.4.90

>  <MASTER>
        0    0    0    0    0    0    0    0   28    0   28    0

