__3zgg_A_rec_1zj3_dr2_lig_min.pdb
 OpenBabel10181910503D

 36 38  0  0  1  0  0  0  0  0999 V2000
   17.5440  -11.1170    6.2520 C   0  0  2  0  0  0  0  0  0  0  0  0
   18.9210  -11.3510    5.9010 O   0  0  0  0  0  0  0  0  0  0  0  0
   19.4470  -12.5150    6.5600 C   0  0  1  0  0  0  0  0  0  0  0  0
   18.6640  -13.7540    6.1170 C   0  0  2  0  0  0  0  0  0  0  0  0
   18.8650  -13.9780    4.7190 O   0  0  0  0  0  0  0  0  0  0  0  0
   17.1730  -13.5420    6.3880 C   0  0  2  0  0  0  0  0  0  0  0  0
   16.4320  -14.6580    5.8860 O   0  0  0  0  0  0  0  0  0  0  0  0
   16.6880  -12.2540    5.7150 C   0  0  1  0  0  0  0  0  0  0  0  0
   20.9280  -12.6810    6.2140 C   0  0  0  0  0  0  0  0  0  0  0  0
   21.6550  -11.5300    6.6500 O   0  0  0  0  0  0  0  0  0  0  0  0
   17.0890   -9.8930    5.6540 O   0  0  0  0  0  0  0  0  0  0  0  0
   19.8370   -8.8240    6.0820 O   0  0  0  0  0  0  0  0  0  0  0  0
   18.6330   -8.0390    6.0280 C   0  0  2  0  0  0  0  0  0  0  0  0
   18.8280   -6.6360    6.6140 C   0  0  2  0  0  0  0  0  0  0  0  0
   17.5040   -5.8710    6.6730 C   0  0  2  0  0  0  0  0  0  0  0  0
   17.7470   -4.7090    7.4710 O   0  0  0  0  0  0  0  0  0  0  0  0
   16.4950   -6.6660    7.3170 O   0  0  0  0  0  0  0  0  0  0  0  0
   16.1840   -7.8380    6.5480 C   0  0  1  0  0  0  0  0  0  0  0  0
   17.3850   -8.7730    6.5030 C   0  0  1  0  0  0  0  0  0  0  0  0
   19.7580   -5.8900    5.7530 N   0  0  0  0  0  0  0  0  0  0  0  0
   21.0690   -5.8340    5.9690 C   0  0  0  0  0  0  0  0  0  0  0  0
   21.8680   -5.1240    4.8730 C   0  0  0  0  0  0  0  0  0  0  0  0
   21.6430   -6.3940    6.9020 O   0  0  0  0  0  0  0  0  0  0  0  0
   14.9850   -8.5570    7.1700 C   0  0  0  0  0  0  0  0  0  0  0  0
   15.4150   -9.3260    8.2960 O   0  0  0  0  0  0  0  0  0  0  0  0
   15.3160  -11.9940    6.0490 O   0  0  0  0  0  0  0  0  0  0  0  0
   14.4220  -12.5940    5.0990 C   0  0  2  0  0  0  0  0  0  0  0  0
   14.5690  -11.9730    3.8080 O   0  0  0  0  0  0  0  0  0  0  0  0
   14.3140  -10.5590    3.8370 C   0  0  1  0  0  0  0  0  0  0  0  0
   14.5800   -9.9570    2.4550 C   0  0  0  0  0  0  0  0  0  0  0  0
   12.8670  -10.2950    4.2610 C   0  0  1  0  0  0  0  0  0  0  0  0
   11.9650  -10.8360    3.2900 O   0  0  0  0  0  0  0  0  0  0  0  0
   12.6010  -10.9390    5.6230 C   0  0  1  0  0  0  0  0  0  0  0  0
   11.2150  -10.8100    5.9500 O   0  0  0  0  0  0  0  0  0  0  0  0
   12.9830  -12.4210    5.5930 C   0  0  2  0  0  0  0  0  0  0  0  0
   12.8390  -12.9940    6.8950 O   0  0  0  0  0  0  0  0  0  0  0  0
  1  8  1  0  0  0  0
  1 11  1  6  0  0  0
  1  2  1  0  0  0  0
  2  3  1  0  0  0  0
  3  4  1  0  0  0  0
  3  9  1  6  0  0  0
  4  5  1  6  0  0  0
  4  6  1  0  0  0  0
  6  8  1  0  0  0  0
  6  7  1  6  0  0  0
  8 26  1  1  0  0  0
  9 10  1  0  0  0  0
 13 12  1  1  0  0  0
 13 19  1  0  0  0  0
 13 14  1  0  0  0  0
 14 20  1  6  0  0  0
 14 15  1  0  0  0  0
 15 17  1  0  0  0  0
 15 16  1  1  0  0  0
 17 18  1  0  0  0  0
 18 19  1  0  0  0  0
 18 24  1  1  0  0  0
 19 11  1  6  0  0  0
 20 21  1  0  0  0  0
 21 22  1  0  0  0  0
 21 23  2  0  0  0  0
 24 25  1  0  0  0  0
 27 26  1  1  0  0  0
 27 28  1  0  0  0  0
 27 35  1  0  0  0  0
 28 29  1  0  0  0  0
 29 30  1  6  0  0  0
 29 31  1  0  0  0  0
 31 32  1  6  0  0  0
 31 33  1  0  0  0  0
 33 35  1  0  0  0  0
 33 34  1  6  0  0  0
 35 36  1  1  0  0  0
M  END
>  <COMPND>
    UNNAMED

>  <AUTHOR>
    GENERATED BY OPEN BABEL 2.4.90

>  <MASTER>
        0    0    0    0    0    0    0    0   36    0   36    0

