__3zgg_A_rec_1zjp_udp_lig_docked.pdb
 OpenBabel10171909253D

 30 31  0  0  1  0  0  0  0  0999 V2000
   10.5770  -23.4240    6.1110 C   0  0  1  0  0  0  0  0  0  0  0  0
    9.7510  -22.4920    5.2200 C   0  0  2  0  0  0  0  0  0  0  0  0
    9.8710  -22.8980    3.8540 O   0  0  0  0  0  0  0  0  0  0  0  0
   10.4820  -21.1680    5.4340 C   0  0  1  0  0  0  0  0  0  0  0  0
   11.9040  -21.7100    5.2880 C   0  0  2  0  0  0  0  0  0  0  0  0
   11.9090  -22.8730    6.1320 O   0  0  0  0  0  0  0  0  0  0  0  0
   10.1940  -20.2870    4.3460 O   0  0  0  0  0  0  0  0  0  0  0  0
   10.8080  -22.9340    3.6080 H   0  0  0  0  0  0  0  0  0  0  0  0
   10.3830  -20.7360    3.5080 H   0  0  0  0  0  0  0  0  0  0  0  0
   10.0500  -23.4350    7.4960 N   0  0  0  0  0  0  0  0  0  0  0  0
    8.8860  -24.1600    7.7940 C   0  0  0  0  0  0  0  0  0  0  0  0
    8.4260  -24.2010    9.1170 N   0  0  0  0  0  0  0  0  0  0  0  0
    9.1190  -23.5260   10.1300 C   0  0  0  0  0  0  0  0  0  0  0  0
   10.2710  -22.8040    9.8300 C   0  0  0  0  0  0  0  0  0  0  0  0
   10.7300  -22.7600    8.5180 C   0  0  0  0  0  0  0  0  0  0  0  0
    8.2670  -24.7450    6.9070 O   0  0  0  0  0  0  0  0  0  0  0  0
    8.7060  -23.5680   11.2880 O   0  0  0  0  0  0  0  0  0  0  0  0
   12.9980  -20.7030    5.6490 C   0  0  0  0  0  0  0  0  0  0  0  0
   12.4560  -19.4230    5.9870 O   0  0  0  0  0  0  0  0  0  0  0  0
   12.6700  -18.8020    7.4570 P   0  0  1  0  0  0  0  0  0  0  0  0
   11.4660  -19.3460    8.3760 O   0  0  0  0  0  0  0  0  0  0  0  0
   13.9930  -19.1240    8.0380 O   0  0  0  0  0  0  0  0  0  0  0  0
   14.0880  -20.0860    8.1120 H   0  0  0  0  0  0  0  0  0  0  0  0
   12.4520  -17.2120    7.3100 O   0  0  0  0  0  0  0  0  0  0  0  0
   13.0930  -16.3820    6.0860 P   0  0  0  0  0  0  0  0  0  0  0  0
   13.0000  -14.9650    6.8460 O   0  0  0  0  0  0  0  0  0  0  0  0
   11.8340  -16.6380    5.1150 O   0  0  0  0  0  0  0  0  0  0  0  0
   14.3700  -17.1120    5.9250 O   0  0  0  0  0  0  0  0  0  0  0  0
   11.9930  -16.2080    4.2600 H   0  0  0  0  0  0  0  0  0  0  0  0
   14.8800  -16.7150    5.2020 H   0  0  0  0  0  0  0  0  0  0  0  0
  1  2  1  0  0  0  0
  1  6  1  0  0  0  0
  1 10  1  1  0  0  0
  2  3  1  6  0  0  0
  2  4  1  0  0  0  0
  3  8  1  0  0  0  0
  4  7  1  6  0  0  0
  4  5  1  0  0  0  0
  5 18  1  1  0  0  0
  5  6  1  0  0  0  0
  7  9  1  0  0  0  0
 10 11  1  0  0  0  0
 10 15  1  0  0  0  0
 11 16  2  0  0  0  0
 11 12  1  0  0  0  0
 12 13  1  0  0  0  0
 13 14  1  0  0  0  0
 13 17  2  0  0  0  0
 14 15  2  0  0  0  0
 18 19  1  0  0  0  0
 19 20  1  0  0  0  0
 20 21  2  1  0  0  0
 20 24  1  0  0  0  0
 20 22  1  0  0  0  0
 22 23  1  0  0  0  0
 24 25  1  0  0  0  0
 25 26  2  0  0  0  0
 25 28  1  0  0  0  0
 25 27  1  0  0  0  0
 27 29  1  0  0  0  0
 28 30  1  0  0  0  0
M  END
>  <MODEL>
       3

>  <COMPND>
    UNNAMED

>  <AUTHOR>
    GENERATED BY OPEN BABEL 2.4.90

>  <MASTER>
        0    0    0    0    0    0    0    0   30    0   30    0

