__4c2s_A_rec_1zjp_udp_lig_docked.pdb
 OpenBabel10171908113D

 30 31  0  0  1  0  0  0  0  0999 V2000
   10.6360  -23.1790    6.3750 C   0  0  1  0  0  0  0  0  0  0  0  0
    9.7860  -22.3080    5.4470 C   0  0  2  0  0  0  0  0  0  0  0  0
    9.7940  -22.8570    4.1270 O   0  0  0  0  0  0  0  0  0  0  0  0
   10.5790  -21.0030    5.4730 C   0  0  1  0  0  0  0  0  0  0  0  0
   11.9660  -21.6200    5.2920 C   0  0  2  0  0  0  0  0  0  0  0  0
   11.9860  -22.6890    6.2510 O   0  0  0  0  0  0  0  0  0  0  0  0
   10.2500  -20.2260    4.3190 O   0  0  0  0  0  0  0  0  0  0  0  0
   10.7100  -22.9600    3.8250 H   0  0  0  0  0  0  0  0  0  0  0  0
   10.3630  -20.7670    3.5220 H   0  0  0  0  0  0  0  0  0  0  0  0
   10.2070  -23.0240    7.7850 N   0  0  0  0  0  0  0  0  0  0  0  0
    9.0410  -23.6620    8.2340 C   0  0  0  0  0  0  0  0  0  0  0  0
    8.6730  -23.5470    9.5820 N   0  0  0  0  0  0  0  0  0  0  0  0
    9.4600  -22.8020   10.4700 C   0  0  0  0  0  0  0  0  0  0  0  0
   10.6140  -22.1660   10.0200 C   0  0  0  0  0  0  0  0  0  0  0  0
   10.9810  -22.2780    8.6840 C   0  0  0  0  0  0  0  0  0  0  0  0
    8.3390  -24.3080    7.4570 O   0  0  0  0  0  0  0  0  0  0  0  0
    9.1270  -22.7060   11.6500 O   0  0  0  0  0  0  0  0  0  0  0  0
   13.1200  -20.6320    5.4710 C   0  0  0  0  0  0  0  0  0  0  0  0
   12.6560  -19.3300    5.8390 O   0  0  0  0  0  0  0  0  0  0  0  0
   12.9170  -18.7510    7.3190 P   0  0  1  0  0  0  0  0  0  0  0  0
   11.4750  -18.5100    7.9900 O   0  0  0  0  0  0  0  0  0  0  0  0
   13.7680  -19.6340    8.1470 O   0  0  0  0  0  0  0  0  0  0  0  0
   13.3390  -20.4990    8.2430 H   0  0  0  0  0  0  0  0  0  0  0  0
   13.5800  -17.2950    7.1220 O   0  0  0  0  0  0  0  0  0  0  0  0
   13.1960  -16.3550    5.8710 P   0  0  0  0  0  0  0  0  0  0  0  0
   13.4030  -14.9820    6.6890 O   0  0  0  0  0  0  0  0  0  0  0  0
   11.6570  -16.8280    5.8510 O   0  0  0  0  0  0  0  0  0  0  0  0
   14.1800  -16.8400    4.8770 O   0  0  0  0  0  0  0  0  0  0  0  0
   11.1880  -16.3700    5.1360 H   0  0  0  0  0  0  0  0  0  0  0  0
   14.0670  -16.3530    4.0460 H   0  0  0  0  0  0  0  0  0  0  0  0
  1  2  1  0  0  0  0
  1  6  1  0  0  0  0
  1 10  1  1  0  0  0
  2  3  1  6  0  0  0
  2  4  1  0  0  0  0
  3  8  1  0  0  0  0
  4  7  1  6  0  0  0
  4  5  1  0  0  0  0
  5 18  1  1  0  0  0
  5  6  1  0  0  0  0
  7  9  1  0  0  0  0
 10 11  1  0  0  0  0
 10 15  1  0  0  0  0
 11 16  2  0  0  0  0
 11 12  1  0  0  0  0
 12 13  1  0  0  0  0
 13 14  1  0  0  0  0
 13 17  2  0  0  0  0
 14 15  2  0  0  0  0
 18 19  1  0  0  0  0
 19 20  1  0  0  0  0
 20 21  2  1  0  0  0
 20 24  1  0  0  0  0
 20 22  1  0  0  0  0
 22 23  1  0  0  0  0
 24 25  1  0  0  0  0
 25 26  2  0  0  0  0
 25 28  1  0  0  0  0
 25 27  1  0  0  0  0
 27 29  1  0  0  0  0
 28 30  1  0  0  0  0
M  END
>  <MODEL>
       1

>  <COMPND>
    UNNAMED

>  <AUTHOR>
    GENERATED BY OPEN BABEL 2.4.90

>  <MASTER>
        0    0    0    0    0    0    0    0   30    0   30    0

