__4c2s_A_rec_3v0m_bhe_lig_min.pdb
 OpenBabel10181912423D

 30 31  0  0  1  0  0  0  0  0999 V2000
   17.8780  -10.4110    6.0910 C   0  0  2  0  0  0  0  0  0  0  0  0
   19.2470  -10.5620    5.8870 O   0  0  0  0  0  0  0  0  0  0  0  0
   19.8240  -11.4760    6.8160 C   0  0  1  0  0  0  0  0  0  0  0  0
   19.2070  -12.8750    6.6960 C   0  0  2  0  0  0  0  0  0  0  0  0
   19.4720  -13.4200    5.3910 O   0  0  0  0  0  0  0  0  0  0  0  0
   17.7430  -12.6990    6.9810 C   0  0  2  0  0  0  0  0  0  0  0  0
   17.1060  -13.9960    6.8570 O   0  0  0  0  0  0  0  0  0  0  0  0
   17.1610  -11.7360    5.9580 C   0  0  1  0  0  0  0  0  0  0  0  0
   21.9670  -10.7390    7.6480 O   0  0  0  0  0  0  0  0  0  0  0  0
   21.3240  -11.4970    6.5990 C   0  0  0  0  0  0  0  0  0  0  0  0
   17.3680   -9.4890    5.1280 O   0  0  0  0  0  0  0  0  0  0  0  0
   17.7060   -8.1200    5.4170 C   0  0  0  0  0  0  0  0  0  0  0  0
   17.3020   -7.2720    4.2010 C   0  0  0  0  0  0  0  0  0  0  0  0
   17.9450   -5.8630    4.2450 C   0  0  0  0  0  0  0  0  0  0  0  0
   19.4110   -5.8560    4.7050 C   0  0  0  0  0  0  0  0  0  0  0  0
   19.9120   -4.3950    4.6160 C   0  0  0  0  0  0  0  0  0  0  0  0
   21.1840   -4.1460    5.4500 C   0  0  0  0  0  0  0  0  0  0  0  0
   22.2360   -5.2280    5.2650 C   0  0  0  0  0  0  0  0  0  0  0  0
   23.4700   -4.5990    4.6260 C   0  0  0  0  0  0  0  0  0  0  0  0
   15.7580  -11.5260    6.1920 O   0  0  0  0  0  0  0  0  0  0  0  0
   14.8430  -12.3060    5.4530 C   0  0  1  0  0  0  0  0  0  0  0  0
   13.4750  -12.1900    6.0590 C   0  0  1  0  0  0  0  0  0  0  0  0
   13.4760  -12.6610    7.4350 O   0  0  0  0  0  0  0  0  0  0  0  0
   13.0330  -10.7310    6.0910 C   0  0  2  0  0  0  0  0  0  0  0  0
   11.6720  -10.7100    6.5920 O   0  0  0  0  0  0  0  0  0  0  0  0
   13.0090  -10.1470    4.7120 C   0  0  2  0  0  0  0  0  0  0  0  0
   12.0830  -10.8090    3.8370 O   0  0  0  0  0  0  0  0  0  0  0  0
   14.4390  -10.2620    4.1790 C   0  0  1  0  0  0  0  0  0  0  0  0
   14.8520  -11.6450    4.1460 O   0  0  0  0  0  0  0  0  0  0  0  0
   14.5040   -9.6880    2.7610 C   0  0  0  0  0  0  0  0  0  0  0  0
  1 11  1  6  0  0  0
  1  2  1  0  0  0  0
  1  8  1  0  0  0  0
  2  3  1  0  0  0  0
  3 10  1  6  0  0  0
  3  4  1  0  0  0  0
  4  5  1  6  0  0  0
  4  6  1  0  0  0  0
  6  8  1  0  0  0  0
  6  7  1  6  0  0  0
  8 20  1  1  0  0  0
  9 10  1  0  0  0  0
 11 12  1  0  0  0  0
 12 13  1  0  0  0  0
 13 14  1  0  0  0  0
 14 15  1  0  0  0  0
 15 16  1  0  0  0  0
 16 17  1  0  0  0  0
 17 18  1  0  0  0  0
 18 19  1  0  0  0  0
 21 20  1  1  0  0  0
 21 29  1  0  0  0  0
 21 22  1  0  0  0  0
 22 24  1  0  0  0  0
 22 23  1  1  0  0  0
 24 26  1  0  0  0  0
 24 25  1  6  0  0  0
 26 27  1  6  0  0  0
 26 28  1  0  0  0  0
 28 30  1  6  0  0  0
 28 29  1  0  0  0  0
M  END
>  <COMPND>
    UNNAMED

>  <AUTHOR>
    GENERATED BY OPEN BABEL 2.4.90

>  <MASTER>
        0    0    0    0    0    0    0    0   30    0   30    0

