__4kc1_A_rec_2rj4_ad7_lig_min.pdb
 OpenBabel10171923153D

 27 28  0  0  1  0  0  0  0  0999 V2000
   17.8410  -11.0760    6.1160 C   0  0  2  0  0  0  0  0  0  0  0  0
   19.2280  -11.2990    5.8100 O   0  0  0  0  0  0  0  0  0  0  0  0
   19.8060  -12.3820    6.5670 C   0  0  1  0  0  0  0  0  0  0  0  0
   19.0540  -13.6860    6.2730 C   0  0  2  0  0  0  0  0  0  0  0  0
   19.0760  -13.9670    4.8690 O   0  0  0  0  0  0  0  0  0  0  0  0
   17.5920  -13.5220    6.6360 C   0  0  2  0  0  0  0  0  0  0  0  0
   16.8940  -14.7600    6.2610 N   0  0  0  0  0  0  0  0  0  0  0  0
   16.9900  -12.3260    5.8720 C   0  0  1  0  0  0  0  0  0  0  0  0
   21.2760  -12.4970    6.1840 C   0  0  0  0  0  0  0  0  0  0  0  0
   22.0200  -11.4740    6.8500 O   0  0  0  0  0  0  0  0  0  0  0  0
   17.3810  -10.0000    5.2850 O   0  0  0  0  0  0  0  0  0  0  0  0
   18.0030   -8.7600    5.7170 C   0  0  0  0  0  0  0  0  0  0  0  0
   17.0730   -7.7940    6.4650 C   0  0  0  0  0  0  0  0  0  0  0  0
   15.8500   -8.4890    7.0830 C   0  0  0  0  0  0  0  0  0  0  0  0
   15.1880   -7.6140    8.1530 C   0  0  0  0  0  0  0  0  0  0  0  0
   12.6680   -7.5090    8.0400 C   0  0  0  0  0  0  0  0  0  0  0  0
   13.8730   -8.2340    8.6380 C   0  0  0  0  0  0  0  0  0  0  0  0
   15.6510  -12.0400    6.3160 O   0  0  0  0  0  0  0  0  0  0  0  0
   14.6650  -12.4240    5.3230 C   0  0  1  0  0  0  0  0  0  0  0  0
   13.2780  -12.2360    5.9840 C   0  0  0  0  0  0  0  0  0  0  0  0
   14.8040  -11.7130    4.0320 O   0  0  0  0  0  0  0  0  0  0  0  0
   14.4480  -10.2940    4.0360 C   0  0  1  0  0  0  0  0  0  0  0  0
   14.6090   -9.7110    2.6280 C   0  0  0  0  0  0  0  0  0  0  0  0
   13.0310  -10.1220    4.6050 C   0  0  1  0  0  0  0  0  0  0  0  0
   12.0650  -10.7420    3.7410 O   0  0  0  0  0  0  0  0  0  0  0  0
   12.9480  -10.7360    6.0150 C   0  0  1  0  0  0  0  0  0  0  0  0
   11.6450  -10.5270    6.5640 O   0  0  0  0  0  0  0  0  0  0  0  0
  1 11  1  6  0  0  0
  1  2  1  0  0  0  0
  1  8  1  0  0  0  0
  2  3  1  0  0  0  0
  3  9  1  6  0  0  0
  3  4  1  0  0  0  0
  4  5  1  6  0  0  0
  4  6  1  0  0  0  0
  6  8  1  0  0  0  0
  6  7  1  6  0  0  0
  8 18  1  1  0  0  0
  9 10  1  0  0  0  0
 11 12  1  0  0  0  0
 12 13  1  0  0  0  0
 13 14  1  0  0  0  0
 14 15  1  0  0  0  0
 15 17  1  0  0  0  0
 16 17  1  0  0  0  0
 19 18  1  1  0  0  0
 19 21  1  0  0  0  0
 19 20  1  0  0  0  0
 20 26  1  0  0  0  0
 21 22  1  0  0  0  0
 22 23  1  6  0  0  0
 22 24  1  0  0  0  0
 24 25  1  6  0  0  0
 24 26  1  0  0  0  0
 26 27  1  6  0  0  0
M  END
>  <COMPND>
    UNNAMED

>  <AUTHOR>
    GENERATED BY OPEN BABEL 2.4.90

>  <MASTER>
        0    0    0    0    0    0    0    0   27    0   27    0

