__4kc1_A_rec_5c38_da8_lig_min.pdb
 OpenBabel10171922453D

 27 28  0  0  1  0  0  0  0  0999 V2000
   17.9910  -10.8400    6.1410 C   0  0  2  0  0  0  0  0  0  0  0  0
   19.3340  -11.2310    5.7760 O   0  0  0  0  0  0  0  0  0  0  0  0
   19.7810  -12.3320    6.5660 C   0  0  1  0  0  0  0  0  0  0  0  0
   18.9450  -13.5910    6.2370 C   0  0  2  0  0  0  0  0  0  0  0  0
   19.0390  -13.9750    4.8510 O   0  0  0  0  0  0  0  0  0  0  0  0
   17.4510  -13.2610    6.5380 C   0  0  0  0  0  0  0  0  0  0  0  0
   17.0320  -11.9860    5.8100 C   0  0  1  0  0  0  0  0  0  0  0  0
   21.2720  -12.5300    6.2820 C   0  0  0  0  0  0  0  0  0  0  0  0
   22.0340  -11.4520    6.8570 O   0  0  0  0  0  0  0  0  0  0  0  0
   17.6300   -9.7600    5.3580 O   0  0  0  0  0  0  0  0  0  0  0  0
   18.6980   -8.7450    5.3060 C   0  0  0  0  0  0  0  0  0  0  0  0
   18.1580   -7.5030    4.6080 C   0  0  0  0  0  0  0  0  0  0  0  0
   19.0320   -6.2480    4.8280 C   0  0  0  0  0  0  0  0  0  0  0  0
   19.9650   -6.2750    6.0190 C   0  0  0  0  0  0  0  0  0  0  0  0
   21.4700   -4.6260    4.8000 C   0  0  0  0  0  0  0  0  0  0  0  0
   20.7340   -4.9370    6.1130 C   0  0  0  0  0  0  0  0  0  0  0  0
   15.6690  -11.6810    6.1990 O   0  0  0  0  0  0  0  0  0  0  0  0
   14.7300  -12.3500    5.3590 C   0  0  2  0  0  0  0  0  0  0  0  0
   14.7710  -11.7980    4.0690 O   0  0  0  0  0  0  0  0  0  0  0  0
   14.5180  -10.3570    4.0020 C   0  0  1  0  0  0  0  0  0  0  0  0
   14.5550   -9.8990    2.5440 C   0  0  0  0  0  0  0  0  0  0  0  0
   13.1040  -10.1430    4.6100 C   0  0  1  0  0  0  0  0  0  0  0  0
   12.0640  -10.7390    3.7940 O   0  0  0  0  0  0  0  0  0  0  0  0
   13.0100  -10.7230    6.0120 C   0  0  1  0  0  0  0  0  0  0  0  0
   11.6720  -10.5160    6.5390 O   0  0  0  0  0  0  0  0  0  0  0  0
   13.3600  -12.1970    6.0230 C   0  0  2  0  0  0  0  0  0  0  0  0
   13.4010  -12.6670    7.3800 O   0  0  0  0  0  0  0  0  0  0  0  0
  1 10  1  6  0  0  0
  1  2  1  0  0  0  0
  1  7  1  0  0  0  0
  2  3  1  0  0  0  0
  3  8  1  6  0  0  0
  3  4  1  0  0  0  0
  4  5  1  6  0  0  0
  4  6  1  0  0  0  0
  6  7  1  0  0  0  0
  7 17  1  1  0  0  0
  8  9  1  0  0  0  0
 10 11  1  0  0  0  0
 11 12  1  0  0  0  0
 12 13  1  0  0  0  0
 13 14  1  0  0  0  0
 14 16  1  0  0  0  0
 15 16  1  0  0  0  0
 18 17  1  1  0  0  0
 18 19  1  0  0  0  0
 18 26  1  0  0  0  0
 19 20  1  0  0  0  0
 20 21  1  6  0  0  0
 20 22  1  0  0  0  0
 22 23  1  6  0  0  0
 22 24  1  0  0  0  0
 24 26  1  0  0  0  0
 24 25  1  6  0  0  0
 26 27  1  1  0  0  0
M  END
>  <COMPND>
    UNNAMED

>  <AUTHOR>
    GENERATED BY OPEN BABEL 2.4.90

>  <MASTER>
        0    0    0    0    0    0    0    0   27    0   27    0

