__4kc2_A_rec_2rj7_da8_lig_min.pdb
 OpenBabel10171922583D

 27 28  0  0  1  0  0  0  0  0999 V2000
   17.7720  -10.9490    6.1210 C   0  0  2  0  0  0  0  0  0  0  0  0
   19.1340  -11.2210    5.7180 O   0  0  0  0  0  0  0  0  0  0  0  0
   19.7150  -12.2910    6.4760 C   0  0  1  0  0  0  0  0  0  0  0  0
   18.9450  -13.6120    6.2470 C   0  0  2  0  0  0  0  0  0  0  0  0
   18.9530  -13.9820    4.8540 O   0  0  0  0  0  0  0  0  0  0  0  0
   17.5100  -13.4120    6.6990 C   0  0  0  0  0  0  0  0  0  0  0  0
   16.9150  -12.2100    5.9280 C   0  0  1  0  0  0  0  0  0  0  0  0
   21.2350  -12.4130    6.1700 C   0  0  0  0  0  0  0  0  0  0  0  0
   21.9240  -11.3490    6.8810 O   0  0  0  0  0  0  0  0  0  0  0  0
   17.2360   -9.9230    5.2830 O   0  0  0  0  0  0  0  0  0  0  0  0
   18.0480   -8.8120    5.2340 C   0  0  0  0  0  0  0  0  0  0  0  0
   18.0690   -6.2670    4.4380 C   0  0  0  0  0  0  0  0  0  0  0  0
   17.3130   -7.6010    4.6520 C   0  0  0  0  0  0  0  0  0  0  0  0
   19.5550   -6.1650    4.7650 C   0  0  0  0  0  0  0  0  0  0  0  0
   21.6160   -4.7320    4.9660 C   0  0  0  0  0  0  0  0  0  0  0  0
   20.1270   -4.7230    4.6100 C   0  0  0  0  0  0  0  0  0  0  0  0
   15.6030  -11.9560    6.3940 O   0  0  0  0  0  0  0  0  0  0  0  0
   14.6040  -12.6190    5.5930 C   0  0  2  0  0  0  0  0  0  0  0  0
   14.6300  -12.2540    4.2020 O   0  0  0  0  0  0  0  0  0  0  0  0
   14.3760  -10.8190    3.9660 C   0  0  1  0  0  0  0  0  0  0  0  0
   14.5040  -10.5060    2.4840 C   0  0  0  0  0  0  0  0  0  0  0  0
   12.9890  -10.4170    4.5280 C   0  0  1  0  0  0  0  0  0  0  0  0
   11.9380  -11.0100    3.7610 O   0  0  0  0  0  0  0  0  0  0  0  0
   12.8950  -10.8060    6.0390 C   0  0  1  0  0  0  0  0  0  0  0  0
   11.5930  -10.4790    6.6040 O   0  0  0  0  0  0  0  0  0  0  0  0
   13.1900  -12.3080    6.2030 C   0  0  2  0  0  0  0  0  0  0  0  0
   13.1780  -12.6010    7.5790 O   0  0  0  0  0  0  0  0  0  0  0  0
  1 10  1  6  0  0  0
  1  2  1  0  0  0  0
  1  7  1  0  0  0  0
  2  3  1  0  0  0  0
  3  4  1  0  0  0  0
  3  8  1  6  0  0  0
  4  5  1  6  0  0  0
  4  6  1  0  0  0  0
  6  7  1  0  0  0  0
  7 17  1  1  0  0  0
  8  9  1  0  0  0  0
 10 11  1  0  0  0  0
 11 13  1  0  0  0  0
 12 13  2  0  0  0  0
 12 14  1  0  0  0  0
 14 16  1  0  0  0  0
 15 16  1  0  0  0  0
 18 17  1  1  0  0  0
 18 19  1  0  0  0  0
 18 26  1  0  0  0  0
 19 20  1  0  0  0  0
 20 21  1  6  0  0  0
 20 22  1  0  0  0  0
 22 23  1  6  0  0  0
 22 24  1  0  0  0  0
 24 26  1  0  0  0  0
 24 25  1  6  0  0  0
 26 27  1  1  0  0  0
M  END
>  <COMPND>
    UNNAMED

>  <AUTHOR>
    GENERATED BY OPEN BABEL 2.4.90

>  <MASTER>
        0    0    0    0    0    0    0    0   27    0   27    0

