__4kc2_A_rec_5c1g_gdu_lig_docked.pdb
 OpenBabel10181918253D

 36 38  0  0  1  0  0  0  0  0999 V2000
   12.3420  -17.8750    6.6350 P   0  0  2  0  0  0  0  0  0  0  0  0
   13.4620  -18.2750    7.5590 O   0  0  0  0  0  0  0  0  0  0  0  0
   10.9430  -17.6290    7.2030 O   0  0  0  0  0  0  0  0  0  0  0  0
   12.2310  -19.0120    5.5240 O   0  0  0  0  0  0  0  0  0  0  0  0
   12.7370  -20.3280    5.7590 C   0  0  0  0  0  0  0  0  0  0  0  0
   10.6560  -23.2180    6.1100 C   0  0  1  0  0  0  0  0  0  0  0  0
    9.6800  -22.4230    5.2470 C   0  0  2  0  0  0  0  0  0  0  0  0
    9.6960  -22.8540    3.8800 O   0  0  0  0  0  0  0  0  0  0  0  0
   10.2760  -21.0490    5.3220 C   0  0  1  0  0  0  0  0  0  0  0  0
   11.7680  -21.3820    5.2490 C   0  0  2  0  0  0  0  0  0  0  0  0
   11.9300  -22.5690    6.0340 O   0  0  0  0  0  0  0  0  0  0  0  0
    9.8350  -20.1770    4.2560 O   0  0  0  0  0  0  0  0  0  0  0  0
   10.2220  -23.2760    7.5010 N   0  0  0  0  0  0  0  0  0  0  0  0
    9.0940  -24.0700    7.7870 C   0  0  0  0  0  0  0  0  0  0  0  0
    8.6550  -24.1710    9.0570 N   0  0  0  0  0  0  0  0  0  0  0  0
    9.2810  -23.5590   10.0760 C   0  0  0  0  0  0  0  0  0  0  0  0
   10.3980  -22.7760    9.8260 C   0  0  0  0  0  0  0  0  0  0  0  0
   10.8650  -22.6500    8.5160 C   0  0  0  0  0  0  0  0  0  0  0  0
    8.4790  -24.6700    6.8750 O   0  0  0  0  0  0  0  0  0  0  0  0
    8.8350  -23.7060   11.2540 O   0  0  0  0  0  0  0  0  0  0  0  0
   12.9080  -16.6200    5.8020 O   0  0  0  0  0  0  0  0  0  0  0  0
   14.0890  -15.5910    6.1700 P   0  0  2  0  0  0  0  0  0  0  0  0
   13.9270  -15.1880    7.6290 O   0  0  0  0  0  0  0  0  0  0  0  0
   14.2110  -14.5240    5.0890 O   0  0  0  0  0  0  0  0  0  0  0  0
   15.2080  -16.6550    5.9770 O   0  0  0  0  0  0  0  0  0  0  0  0
   16.5010  -16.5280    5.4550 C   0  0  2  0  0  0  0  0  0  0  0  0
   16.4620  -17.3580    4.1750 C   0  0  1  0  0  0  0  0  0  0  0  0
   15.9400  -18.7190    4.5810 C   0  0  2  0  0  0  0  0  0  0  0  0
   16.8860  -19.3690    5.5880 C   0  0  2  0  0  0  0  0  0  0  0  0
   17.1370  -18.4810    6.8000 C   0  0  2  0  0  0  0  0  0  0  0  0
   15.5660  -16.8000    3.2010 O   0  0  0  0  0  0  0  0  0  0  0  0
   15.7410  -19.5610    3.4600 O   0  0  0  0  0  0  0  0  0  0  0  0
   18.1410  -19.7040    4.9740 O   0  0  0  0  0  0  0  0  0  0  0  0
   17.3750  -17.1010    6.4360 O   0  0  0  0  0  0  0  0  0  0  0  0
   18.2940  -19.0310    7.6340 C   0  0  0  0  0  0  0  0  0  0  0  0
   18.0820  -20.4110    7.9390 O   0  0  0  0  0  0  0  0  0  0  0  0
  1  3  2  1  0  0  0
  1  4  1  0  0  0  0
  1 21  1  0  0  0  0
  1  2  1  0  0  0  0
  4  5  1  0  0  0  0
  6  7  1  0  0  0  0
  6 11  1  0  0  0  0
  6 13  1  1  0  0  0
  7  8  1  6  0  0  0
  7  9  1  0  0  0  0
  9 12  1  6  0  0  0
  9 10  1  0  0  0  0
 10  5  1  1  0  0  0
 10 11  1  0  0  0  0
 13 14  1  0  0  0  0
 13 18  1  0  0  0  0
 14 19  2  0  0  0  0
 14 15  1  0  0  0  0
 15 16  1  0  0  0  0
 16 17  1  0  0  0  0
 16 20  2  0  0  0  0
 17 18  2  0  0  0  0
 21 22  1  0  0  0  0
 22 24  2  6  0  0  0
 22 25  1  0  0  0  0
 22 23  1  0  0  0  0
 26 25  1  1  0  0  0
 26 27  1  0  0  0  0
 26 34  1  0  0  0  0
 27 31  1  6  0  0  0
 27 28  1  0  0  0  0
 28 32  1  6  0  0  0
 28 29  1  0  0  0  0
 29 33  1  6  0  0  0
 29 30  1  0  0  0  0
 30 34  1  0  0  0  0
 30 35  1  6  0  0  0
 35 36  1  0  0  0  0
M  END
>  <MODEL>
       1

>  <COMPND>
    UNNAMED

>  <AUTHOR>
    GENERATED BY OPEN BABEL 2.4.90

>  <MASTER>
        0    0    0    0    0    0    0    0   36    0   36    0

