__4y62_A_rec_3i0k_udp_lig_min.pdb
 OpenBabel10181912143D

 25 26  0  0  1  0  0  0  0  0999 V2000
   10.0990  -22.6800    5.7050 C   0  0  1  0  0  0  0  0  0  0  0  0
    9.2100  -21.7940    4.8630 C   0  0  2  0  0  0  0  0  0  0  0  0
    9.3390  -22.1970    3.5200 O   0  0  0  0  0  0  0  0  0  0  0  0
    9.8920  -20.4710    5.0110 C   0  0  1  0  0  0  0  0  0  0  0  0
   11.3980  -20.7960    4.9530 C   0  0  2  0  0  0  0  0  0  0  0  0
   11.4910  -22.1490    5.5560 O   0  0  0  0  0  0  0  0  0  0  0  0
    9.5590  -19.7580    3.8420 O   0  0  0  0  0  0  0  0  0  0  0  0
    9.5610  -22.6970    7.0990 N   0  0  0  0  0  0  0  0  0  0  0  0
    8.4590  -23.5120    7.3850 C   0  0  0  0  0  0  0  0  0  0  0  0
    7.9650  -23.5120    8.7350 N   0  0  0  0  0  0  0  0  0  0  0  0
    8.5840  -22.7170    9.7840 C   0  0  0  0  0  0  0  0  0  0  0  0
    9.6960  -21.9250    9.4580 C   0  0  0  0  0  0  0  0  0  0  0  0
   10.1630  -21.9130    8.1370 C   0  0  0  0  0  0  0  0  0  0  0  0
    7.9490  -24.1790    6.4780 O   0  0  0  0  0  0  0  0  0  0  0  0
    8.1650  -22.7200   10.9570 O   0  0  0  0  0  0  0  0  0  0  0  0
   12.4560  -19.7200    5.4610 C   0  0  0  0  0  0  0  0  0  0  0  0
   11.9860  -18.7060    6.4040 O   0  0  0  0  0  0  0  0  0  0  0  0
   11.6970  -17.0210    6.1610 P   0  0  2  0  0  0  0  0  0  0  0  0
   10.8830  -17.4850    7.5250 O   0  0  0  0  0  0  0  0  0  0  0  0
   11.1140  -17.2930    4.7820 O   0  0  0  0  0  0  0  0  0  0  0  0
   13.4100  -16.8730    6.2660 O   0  0  0  0  0  0  0  0  0  0  0  0
   14.4210  -15.9350    5.2500 P   0  0  0  0  0  0  0  0  0  0  0  0
   15.0830  -15.5680    6.7350 O   0  0  0  0  0  0  0  0  0  0  0  0
   13.2190  -15.1410    4.7500 O   0  0  0  0  0  0  0  0  0  0  0  0
   14.7980  -17.4250    4.6330 O   0  0  0  0  0  0  0  0  0  0  0  0
  1  2  1  0  0  0  0
  1  6  1  0  0  0  0
  1  8  1  1  0  0  0
  2  3  1  6  0  0  0
  2  4  1  0  0  0  0
  4  7  1  6  0  0  0
  4  5  1  0  0  0  0
  5 16  1  1  0  0  0
  5  6  1  0  0  0  0
  8  9  1  0  0  0  0
  8 13  1  0  0  0  0
  9 14  2  0  0  0  0
  9 10  1  0  0  0  0
 10 11  1  0  0  0  0
 11 12  1  0  0  0  0
 11 15  2  0  0  0  0
 12 13  2  0  0  0  0
 16 17  1  0  0  0  0
 17 18  1  0  0  0  0
 18 20  2  6  0  0  0
 18 21  1  0  0  0  0
 18 19  1  0  0  0  0
 21 22  1  0  0  0  0
 22 25  2  0  0  0  0
 22 24  1  0  0  0  0
 22 23  1  0  0  0  0
M  END
>  <COMPND>
    UNNAMED

>  <AUTHOR>
    GENERATED BY OPEN BABEL 2.4.90

>  <MASTER>
        0    0    0    0    0    0    0    0   25    0   25    0

