__4y64_A_rec_1zi3_nlc_lig_min.pdb
 OpenBabel10181902473D

 26 27  0  0  1  0  0  0  0  0999 V2000
   17.3670   -6.0110    6.8060 C   0  0  2  0  0  0  0  0  0  0  0  0
   16.7720   -5.6480    5.5580 O   0  0  0  0  0  0  0  0  0  0  0  0
   18.6600   -6.7930    6.5560 C   0  0  1  0  0  0  0  0  0  0  0  0
   18.3420   -8.1240    5.8710 C   0  0  1  0  0  0  0  0  0  0  0  0
   19.5460   -8.8860    5.7490 O   0  0  0  0  0  0  0  0  0  0  0  0
   17.3140   -8.9180    6.6820 C   0  0  1  0  0  0  0  0  0  0  0  0
   16.0920   -8.0340    6.8980 C   0  0  2  0  0  0  0  0  0  0  0  0
   16.4560   -6.8170    7.5730 O   0  0  0  0  0  0  0  0  0  0  0  0
   19.5470   -5.9960    5.6940 N   0  0  0  0  0  0  0  0  0  0  0  0
   20.8190   -5.7600    6.0010 C   0  0  0  0  0  0  0  0  0  0  0  0
   21.5780   -4.9030    4.9840 C   0  0  0  0  0  0  0  0  0  0  0  0
   21.3770   -6.1740    7.0160 O   0  0  0  0  0  0  0  0  0  0  0  0
   15.0510   -8.7860    7.7290 C   0  0  0  0  0  0  0  0  0  0  0  0
   15.7060   -9.6270    8.6820 O   0  0  0  0  0  0  0  0  0  0  0  0
   16.9130  -10.1120    5.9900 O   0  0  0  0  0  0  0  0  0  0  0  0
   16.6110  -12.4800    6.3070 C   0  0  2  0  0  0  0  0  0  0  0  0
   15.3590  -12.2840    6.9690 O   0  0  0  0  0  0  0  0  0  0  0  0
   17.2740  -13.7650    6.8090 C   0  0  1  0  0  0  0  0  0  0  0  0
   16.4680  -14.8890    6.4470 O   0  0  0  0  0  0  0  0  0  0  0  0
   18.6630  -13.9130    6.1840 C   0  0  2  0  0  0  0  0  0  0  0  0
   19.4840  -12.6520    6.4650 C   0  0  2  0  0  0  0  0  0  0  0  0
   17.5290  -11.2790    6.5530 C   0  0  1  0  0  0  0  0  0  0  0  0
   18.8020  -11.5070    5.9230 O   0  0  0  0  0  0  0  0  0  0  0  0
   18.5230  -14.0790    4.7700 O   0  0  0  0  0  0  0  0  0  0  0  0
   20.8720  -12.7760    5.8340 C   0  0  0  0  0  0  0  0  0  0  0  0
   21.7440  -11.7960    6.4020 O   0  0  0  0  0  0  0  0  0  0  0  0
  1  2  1  6  0  0  0
  1  3  1  0  0  0  0
  1  8  1  0  0  0  0
  3  9  1  6  0  0  0
  3  4  1  0  0  0  0
  4  5  1  1  0  0  0
  4  6  1  0  0  0  0
  6 15  1  6  0  0  0
  6  7  1  0  0  0  0
  7  8  1  0  0  0  0
  7 13  1  1  0  0  0
  9 10  1  0  0  0  0
 10 11  1  0  0  0  0
 10 12  2  0  0  0  0
 13 14  1  0  0  0  0
 16 22  1  0  0  0  0
 16 17  1  1  0  0  0
 16 18  1  0  0  0  0
 18 20  1  0  0  0  0
 18 19  1  6  0  0  0
 20 24  1  6  0  0  0
 20 21  1  0  0  0  0
 21 23  1  0  0  0  0
 21 25  1  6  0  0  0
 22 15  1  6  0  0  0
 22 23  1  0  0  0  0
 25 26  1  0  0  0  0
M  END
>  <COMPND>
    UNNAMED

>  <AUTHOR>
    GENERATED BY OPEN BABEL 2.4.90

>  <MASTER>
        0    0    0    0    0    0    0    0   26    0   26    0

