__4y64_A_rec_4kc2_ws2_lig_docked.pdb
 OpenBabel10181920183D

 27 29  0  0  1  0  0  0  0  0999 V2000
   10.5360  -23.0640    6.1550 C   0  0  2  0  0  0  0  0  0  0  0  0
   11.8900  -22.6180    6.0280 O   0  0  0  0  0  0  0  0  0  0  0  0
    9.6770  -22.0320    5.4330 C   0  0  2  0  0  0  0  0  0  0  0  0
    9.4700  -22.4210    4.0630 O   0  0  0  0  0  0  0  0  0  0  0  0
   10.5430  -20.7970    5.4720 C   0  0  2  0  0  0  0  0  0  0  0  0
   10.2070  -19.8760    4.4300 O   0  0  0  0  0  0  0  0  0  0  0  0
   11.9380  -21.3850    5.3050 C   0  0  1  0  0  0  0  0  0  0  0  0
    8.9160  -23.4310   11.3860 O   0  0  0  0  0  0  0  0  0  0  0  0
    9.3030  -23.3440   10.1930 C   0  0  0  0  0  0  0  0  0  0  0  0
    8.6240  -23.9850    9.2270 N   0  0  0  0  0  0  0  0  0  0  0  0
    9.0040  -23.9050    7.9430 C   0  0  0  0  0  0  0  0  0  0  0  0
    8.3470  -24.5120    7.0720 O   0  0  0  0  0  0  0  0  0  0  0  0
   10.4230  -22.5740    9.8660 C   0  0  0  0  0  0  0  0  0  0  0  0
   10.8260  -22.4900    8.5290 C   0  0  0  0  0  0  0  0  0  0  0  0
   10.1350  -23.1370    7.5720 N   0  0  0  0  0  0  0  0  0  0  0  0
   13.1080  -20.5250    5.7910 C   0  0  0  0  0  0  0  0  0  0  0  0
   12.6970  -19.3730    6.5750 N   0  0  0  0  0  0  0  0  0  0  0  0
   13.1630  -19.1650    7.8070 C   0  0  0  0  0  0  0  0  0  0  0  0
   14.1540  -19.7570    8.2210 O   0  0  0  0  0  0  0  0  0  0  0  0
   12.4880  -18.1820    8.7240 C   0  0  0  0  0  0  0  0  0  0  0  0
   12.3290  -18.4470   10.0880 C   0  0  0  0  0  0  0  0  0  0  0  0
   11.6940  -17.5000   10.8970 C   0  0  0  0  0  0  0  0  0  0  0  0
   11.2300  -16.3120   10.3320 C   0  0  0  0  0  0  0  0  0  0  0  0
   11.4140  -16.0810    8.9690 C   0  0  0  0  0  0  0  0  0  0  0  0
   12.0270  -17.0170    8.2010 N   0  0  0  0  0  0  0  0  0  0  0  0
   10.9130  -14.7990    8.3270 C   0  0  0  0  0  0  0  0  0  0  0  0
   10.4150  -15.0760    7.0160 O   0  0  0  0  0  0  0  0  0  0  0  0
  1  3  1  0  0  0  0
  1  2  1  0  0  0  0
  1 15  1  1  0  0  0
  2  7  1  0  0  0  0
  3  4  1  6  0  0  0
  3  5  1  0  0  0  0
  5  6  1  6  0  0  0
  5  7  1  0  0  0  0
  7 16  1  1  0  0  0
  8  9  2  0  0  0  0
  9 10  1  0  0  0  0
  9 13  1  0  0  0  0
 10 11  1  0  0  0  0
 11 12  2  0  0  0  0
 11 15  1  0  0  0  0
 13 14  2  0  0  0  0
 14 15  1  0  0  0  0
 16 17  1  0  0  0  0
 17 18  1  0  0  0  0
 18 19  2  0  0  0  0
 18 20  1  0  0  0  0
 20 25  2  0  0  0  0
 20 21  1  0  0  0  0
 21 22  2  0  0  0  0
 22 23  1  0  0  0  0
 23 24  2  0  0  0  0
 24 25  1  0  0  0  0
 24 26  1  0  0  0  0
 26 27  1  0  0  0  0
M  END
>  <MODEL>
       4

>  <COMPND>
    UNNAMED

>  <AUTHOR>
    GENERATED BY OPEN BABEL 2.4.90

>  <MASTER>
        0    0    0    0    0    0    0    0   27    0   27    0

