__5bxc_A_rec_5c1g_gdu_lig_docked.pdb
 OpenBabel10171907433D

 44 46  0  0  1  0  0  0  0  0999 V2000
   12.4930  -17.9700    6.4590 P   0  0  2  0  0  0  0  0  0  0  0  0
   13.7390  -18.1750    7.2800 O   0  0  0  0  0  0  0  0  0  0  0  0
   11.1240  -17.9780    7.1420 O   0  0  0  0  0  0  0  0  0  0  0  0
   13.6420  -18.9760    7.8190 H   0  0  0  0  0  0  0  0  0  0  0  0
   12.4910  -19.0980    5.3330 O   0  0  0  0  0  0  0  0  0  0  0  0
   12.8990  -20.4360    5.6260 C   0  0  0  0  0  0  0  0  0  0  0  0
   10.6510  -23.1950    6.0040 C   0  0  1  0  0  0  0  0  0  0  0  0
    9.7270  -22.3580    5.1240 C   0  0  2  0  0  0  0  0  0  0  0  0
    9.7260  -22.8070    3.7630 O   0  0  0  0  0  0  0  0  0  0  0  0
   10.4020  -21.0190    5.1830 C   0  0  1  0  0  0  0  0  0  0  0  0
   11.8730  -21.4390    5.1250 C   0  0  2  0  0  0  0  0  0  0  0  0
   11.9600  -22.6230    5.9270 O   0  0  0  0  0  0  0  0  0  0  0  0
   10.0190  -20.1390    4.1030 O   0  0  0  0  0  0  0  0  0  0  0  0
   10.6340  -22.8010    3.4200 H   0  0  0  0  0  0  0  0  0  0  0  0
   10.2080  -20.5680    3.2530 H   0  0  0  0  0  0  0  0  0  0  0  0
   10.2070  -23.2080    7.3930 N   0  0  0  0  0  0  0  0  0  0  0  0
    9.0450  -23.9500    7.6870 C   0  0  0  0  0  0  0  0  0  0  0  0
    8.5940  -24.0070    8.9550 N   0  0  0  0  0  0  0  0  0  0  0  0
    9.2390  -23.4020    9.9660 C   0  0  0  0  0  0  0  0  0  0  0  0
   10.3880  -22.6700    9.7090 C   0  0  0  0  0  0  0  0  0  0  0  0
   10.8680  -22.5890    8.4000 C   0  0  0  0  0  0  0  0  0  0  0  0
    8.4110  -24.5420    6.7820 O   0  0  0  0  0  0  0  0  0  0  0  0
    8.7800  -23.5070   11.1440 O   0  0  0  0  0  0  0  0  0  0  0  0
   12.7610  -16.6280    5.6130 O   0  0  0  0  0  0  0  0  0  0  0  0
   13.9110  -15.5150    5.7880 P   0  0  2  0  0  0  0  0  0  0  0  0
   13.8570  -15.0020    7.2200 O   0  0  0  0  0  0  0  0  0  0  0  0
   13.8760  -14.5360    4.6210 O   0  0  0  0  0  0  0  0  0  0  0  0
   14.5440  -14.3280    7.3480 H   0  0  0  0  0  0  0  0  0  0  0  0
   15.0660  -16.5360    5.5750 O   0  0  0  0  0  0  0  0  0  0  0  0
   16.3280  -16.3700    4.9910 C   0  0  2  0  0  0  0  0  0  0  0  0
   16.2720  -17.2470    3.7440 C   0  0  1  0  0  0  0  0  0  0  0  0
   15.8330  -18.6140    4.2200 C   0  0  2  0  0  0  0  0  0  0  0  0
   16.8510  -19.1830    5.2060 C   0  0  2  0  0  0  0  0  0  0  0  0
   17.1130  -18.2400    6.3730 C   0  0  2  0  0  0  0  0  0  0  0  0
   15.3090  -16.7670    2.7920 O   0  0  0  0  0  0  0  0  0  0  0  0
   15.6250  -19.5060    3.1400 O   0  0  0  0  0  0  0  0  0  0  0  0
   18.0930  -19.4840    4.5490 O   0  0  0  0  0  0  0  0  0  0  0  0
   17.2690  -16.8650    5.9510 O   0  0  0  0  0  0  0  0  0  0  0  0
   14.4300  -16.7490    3.2020 H   0  0  0  0  0  0  0  0  0  0  0  0
   16.4580  -19.6330    2.6600 H   0  0  0  0  0  0  0  0  0  0  0  0
   18.4790  -18.6660    4.1970 H   0  0  0  0  0  0  0  0  0  0  0  0
   18.3290  -18.7060    7.1730 C   0  0  0  0  0  0  0  0  0  0  0  0
   18.3140  -20.1260    7.3310 O   0  0  0  0  0  0  0  0  0  0  0  0
   17.5120  -20.3900    7.8100 H   0  0  0  0  0  0  0  0  0  0  0  0
  1  3  2  1  0  0  0
  1  5  1  0  0  0  0
  1 24  1  0  0  0  0
  1  2  1  0  0  0  0
  2  4  1  0  0  0  0
  5  6  1  0  0  0  0
  7  8  1  0  0  0  0
  7 12  1  0  0  0  0
  7 16  1  1  0  0  0
  8  9  1  6  0  0  0
  8 10  1  0  0  0  0
  9 14  1  0  0  0  0
 10 13  1  6  0  0  0
 10 11  1  0  0  0  0
 11  6  1  1  0  0  0
 11 12  1  0  0  0  0
 13 15  1  0  0  0  0
 16 17  1  0  0  0  0
 16 21  1  0  0  0  0
 17 22  2  0  0  0  0
 17 18  1  0  0  0  0
 18 19  1  0  0  0  0
 19 20  1  0  0  0  0
 19 23  2  0  0  0  0
 20 21  2  0  0  0  0
 24 25  1  0  0  0  0
 25 27  2  6  0  0  0
 25 29  1  0  0  0  0
 25 26  1  0  0  0  0
 26 28  1  0  0  0  0
 30 29  1  1  0  0  0
 30 31  1  0  0  0  0
 30 38  1  0  0  0  0
 31 35  1  6  0  0  0
 31 32  1  0  0  0  0
 32 36  1  6  0  0  0
 32 33  1  0  0  0  0
 33 37  1  6  0  0  0
 33 34  1  0  0  0  0
 34 38  1  0  0  0  0
 34 42  1  6  0  0  0
 35 39  1  0  0  0  0
 36 40  1  0  0  0  0
 37 41  1  0  0  0  0
 42 43  1  0  0  0  0
 43 44  1  0  0  0  0
M  END
>  <MODEL>
       1

>  <COMPND>
    UNNAMED

>  <AUTHOR>
    GENERATED BY OPEN BABEL 2.4.90

>  <MASTER>
        0    0    0    0    0    0    0    0   44    0   44    0

