__5bxc_A_rec_1zi5_dr3_lig_min.pdb
 OpenBabel10181903533D

 36 38  0  0  1  0  0  0  0  0999 V2000
   16.5940  -12.5250    5.7470 C   0  0  2  0  0  0  0  0  0  0  0  0
   17.2550  -13.7640    6.3560 C   0  0  1  0  0  0  0  0  0  0  0  0
   16.6500  -14.9440    5.8220 O   0  0  0  0  0  0  0  0  0  0  0  0
   18.7570  -13.7780    6.0590 C   0  0  1  0  0  0  0  0  0  0  0  0
   18.9650  -13.9120    4.6500 O   0  0  0  0  0  0  0  0  0  0  0  0
   19.3820  -12.4690    6.5500 C   0  0  2  0  0  0  0  0  0  0  0  0
   18.7170  -11.3610    5.9220 O   0  0  0  0  0  0  0  0  0  0  0  0
   17.3220  -11.2970    6.2710 C   0  0  1  0  0  0  0  0  0  0  0  0
   20.8750  -12.4310    6.2160 C   0  0  0  0  0  0  0  0  0  0  0  0
   21.4840  -11.3250    6.8870 O   0  0  0  0  0  0  0  0  0  0  0  0
   15.2120  -12.4480    6.1330 O   0  0  0  0  0  0  0  0  0  0  0  0
   12.8920  -13.9160    6.7620 O   0  0  0  0  0  0  0  0  0  0  0  0
   12.9200  -13.0430    5.6300 C   0  0  1  0  0  0  0  0  0  0  0  0
   12.3750  -11.6640    6.0150 C   0  0  2  0  0  0  0  0  0  0  0  0
   11.0000  -11.7800    6.3910 O   0  0  0  0  0  0  0  0  0  0  0  0
   12.5050  -10.6950    4.8370 C   0  0  2  0  0  0  0  0  0  0  0  0
   11.6350  -11.1070    3.7810 O   0  0  0  0  0  0  0  0  0  0  0  0
   13.9560  -10.6780    4.3440 C   0  0  2  0  0  0  0  0  0  0  0  0
   14.0980   -9.7400    3.1440 C   0  0  0  0  0  0  0  0  0  0  0  0
   14.3660  -12.0060    3.9770 O   0  0  0  0  0  0  0  0  0  0  0  0
   14.3470  -12.9210    5.0880 C   0  0  1  0  0  0  0  0  0  0  0  0
   16.7380  -10.1290    5.6750 O   0  0  0  0  0  0  0  0  0  0  0  0
   17.3160   -8.9440    6.2400 C   0  0  1  0  0  0  0  0  0  0  0  0
   17.8270   -8.0060    5.1430 C   0  0  2  0  0  0  0  0  0  0  0  0
   18.8730   -8.6550    4.4150 O   0  0  0  0  0  0  0  0  0  0  0  0
   18.3570   -6.7100    5.7610 C   0  0  2  0  0  0  0  0  0  0  0  0
   17.3290   -6.0820    6.5460 O   0  0  0  0  0  0  0  0  0  0  0  0
   16.9110   -6.9030    7.6490 C   0  0  1  0  0  0  0  0  0  0  0  0
   15.9380   -6.2050    8.4300 O   0  0  0  0  0  0  0  0  0  0  0  0
   16.3030   -8.2050    7.1190 C   0  0  2  0  0  0  0  0  0  0  0  0
   15.8780   -9.0620    8.2370 N   0  0  0  0  0  0  0  0  0  0  0  0
   14.6380   -9.5240    8.3860 C   0  0  0  0  0  0  0  0  0  0  0  0
   13.5210   -8.6600    7.7930 C   0  0  0  0  0  0  0  0  0  0  0  0
   14.3540  -10.3160    9.4520 O   0  0  0  0  0  0  0  0  0  0  0  0
   18.8050   -5.7520    4.6560 C   0  0  0  0  0  0  0  0  0  0  0  0
   17.6780   -5.3720    3.8630 O   0  0  0  0  0  0  0  0  0  0  0  0
  1  8  1  0  0  0  0
  1 11  1  1  0  0  0
  1  2  1  0  0  0  0
  2  3  1  6  0  0  0
  2  4  1  0  0  0  0
  4  5  1  6  0  0  0
  4  6  1  0  0  0  0
  6  7  1  0  0  0  0
  6  9  1  6  0  0  0
  7  8  1  0  0  0  0
  8 22  1  6  0  0  0
  9 10  1  0  0  0  0
 13 12  1  1  0  0  0
 13 21  1  0  0  0  0
 13 14  1  0  0  0  0
 14 16  1  0  0  0  0
 14 15  1  6  0  0  0
 16 17  1  6  0  0  0
 16 18  1  0  0  0  0
 18 19  1  6  0  0  0
 18 20  1  0  0  0  0
 20 21  1  0  0  0  0
 21 11  1  1  0  0  0
 23 22  1  6  0  0  0
 23 24  1  0  0  0  0
 23 30  1  0  0  0  0
 24 25  1  1  0  0  0
 24 26  1  0  0  0  0
 26 35  1  6  0  0  0
 26 27  1  0  0  0  0
 27 28  1  0  0  0  0
 28 30  1  0  0  0  0
 28 29  1  6  0  0  0
 30 31  1  1  0  0  0
 31 32  1  0  0  0  0
 32 33  1  0  0  0  0
 32 34  2  0  0  0  0
 35 36  1  0  0  0  0
M  END
>  <COMPND>
    UNNAMED

>  <AUTHOR>
    GENERATED BY OPEN BABEL 2.4.90

>  <MASTER>
        0    0    0    0    0    0    0    0   36    0   36    0

