__5bxc_A_rec_3v0m_bhe_lig_min.pdb
 OpenBabel10181906093D

 30 31  0  0  1  0  0  0  0  0999 V2000
   17.4380  -11.1910    5.9760 C   0  0  2  0  0  0  0  0  0  0  0  0
   18.8080  -11.3470    5.7750 O   0  0  0  0  0  0  0  0  0  0  0  0
   19.3430  -12.4020    6.5690 C   0  0  1  0  0  0  0  0  0  0  0  0
   18.6970  -13.7510    6.2320 C   0  0  2  0  0  0  0  0  0  0  0  0
   18.9760  -14.1050    4.8660 O   0  0  0  0  0  0  0  0  0  0  0  0
   17.2300  -13.5810    6.5140 C   0  0  2  0  0  0  0  0  0  0  0  0
   16.5660  -14.8280    6.1880 O   0  0  0  0  0  0  0  0  0  0  0  0
   16.6930  -12.4620    5.6350 C   0  0  1  0  0  0  0  0  0  0  0  0
   21.4210  -11.2310    6.9440 O   0  0  0  0  0  0  0  0  0  0  0  0
   20.8460  -12.4300    6.3780 C   0  0  0  0  0  0  0  0  0  0  0  0
   16.9710  -10.1230    5.1510 O   0  0  0  0  0  0  0  0  0  0  0  0
   17.5100   -8.8420    5.5210 C   0  0  0  0  0  0  0  0  0  0  0  0
   17.4610   -7.9370    4.2790 C   0  0  0  0  0  0  0  0  0  0  0  0
   17.9390   -6.4980    4.5970 C   0  0  0  0  0  0  0  0  0  0  0  0
   19.4660   -6.3300    4.6010 C   0  0  0  0  0  0  0  0  0  0  0  0
   19.8830   -5.9660    6.0460 C   0  0  0  0  0  0  0  0  0  0  0  0
   21.1220   -5.0520    6.0990 C   0  0  0  0  0  0  0  0  0  0  0  0
   21.4000   -4.3510    4.7790 C   0  0  0  0  0  0  0  0  0  0  0  0
   20.9360   -2.9030    4.8930 C   0  0  0  0  0  0  0  0  0  0  0  0
   15.2910  -12.2520    5.8730 O   0  0  0  0  0  0  0  0  0  0  0  0
   14.3760  -12.8470    4.9790 C   0  0  1  0  0  0  0  0  0  0  0  0
   12.9820  -12.7110    5.5180 C   0  0  1  0  0  0  0  0  0  0  0  0
   12.8580  -13.3700    6.8080 O   0  0  0  0  0  0  0  0  0  0  0  0
   12.6400  -11.2410    5.7370 C   0  0  2  0  0  0  0  0  0  0  0  0
   11.2540  -11.1840    6.1590 O   0  0  0  0  0  0  0  0  0  0  0  0
   12.7490  -10.4680    4.4580 C   0  0  2  0  0  0  0  0  0  0  0  0
   11.8390  -10.9270    3.4460 O   0  0  0  0  0  0  0  0  0  0  0  0
   14.2000  -10.6180    3.9950 C   0  0  1  0  0  0  0  0  0  0  0  0
   14.5170  -12.0110    3.7840 O   0  0  0  0  0  0  0  0  0  0  0  0
   14.3980   -9.8570    2.6820 C   0  0  0  0  0  0  0  0  0  0  0  0
  1 11  1  6  0  0  0
  1  2  1  0  0  0  0
  1  8  1  0  0  0  0
  2  3  1  0  0  0  0
  3 10  1  6  0  0  0
  3  4  1  0  0  0  0
  4  5  1  6  0  0  0
  4  6  1  0  0  0  0
  6  8  1  0  0  0  0
  6  7  1  6  0  0  0
  8 20  1  1  0  0  0
  9 10  1  0  0  0  0
 11 12  1  0  0  0  0
 12 13  1  0  0  0  0
 13 14  1  0  0  0  0
 14 15  1  0  0  0  0
 15 16  1  0  0  0  0
 16 17  1  0  0  0  0
 17 18  1  0  0  0  0
 18 19  1  0  0  0  0
 21 20  1  1  0  0  0
 21 29  1  0  0  0  0
 21 22  1  0  0  0  0
 22 24  1  0  0  0  0
 22 23  1  1  0  0  0
 24 26  1  0  0  0  0
 24 25  1  6  0  0  0
 26 27  1  6  0  0  0
 26 28  1  0  0  0  0
 28 30  1  6  0  0  0
 28 29  1  0  0  0  0
M  END
>  <COMPND>
    UNNAMED

>  <AUTHOR>
    GENERATED BY OPEN BABEL 2.4.90

>  <MASTER>
        0    0    0    0    0    0    0    0   30    0   30    0

