__5bxc_A_rec_2rj7_da8_lig_min.pdb
 OpenBabel10181909523D

 27 28  0  0  1  0  0  0  0  0999 V2000
   17.4590  -11.1450    6.1400 C   0  0  2  0  0  0  0  0  0  0  0  0
   18.8620  -11.2810    5.8160 O   0  0  0  0  0  0  0  0  0  0  0  0
   19.4630  -12.3930    6.4940 C   0  0  1  0  0  0  0  0  0  0  0  0
   18.8080  -13.7250    6.0610 C   0  0  2  0  0  0  0  0  0  0  0  0
   18.9410  -13.9290    4.6400 O   0  0  0  0  0  0  0  0  0  0  0  0
   17.3340  -13.6700    6.4200 C   0  0  0  0  0  0  0  0  0  0  0  0
   16.7100  -12.4270    5.7420 C   0  0  1  0  0  0  0  0  0  0  0  0
   21.0060  -12.3820    6.2950 C   0  0  0  0  0  0  0  0  0  0  0  0
   21.5360  -11.2010    6.9570 O   0  0  0  0  0  0  0  0  0  0  0  0
   16.9110  -10.0650    5.3810 O   0  0  0  0  0  0  0  0  0  0  0  0
   17.7630   -8.9860    5.3180 C   0  0  0  0  0  0  0  0  0  0  0  0
   17.8620   -6.5260    4.2910 C   0  0  0  0  0  0  0  0  0  0  0  0
   17.3180   -7.9760    4.2560 C   0  0  0  0  0  0  0  0  0  0  0  0
   18.8750   -6.1110    5.3530 C   0  0  0  0  0  0  0  0  0  0  0  0
   21.0690   -5.0080    5.9080 C   0  0  0  0  0  0  0  0  0  0  0  0
   20.1710   -5.4780    4.7610 C   0  0  0  0  0  0  0  0  0  0  0  0
   15.3540  -12.3130    6.1300 O   0  0  0  0  0  0  0  0  0  0  0  0
   14.4590  -12.8610    5.1410 C   0  0  2  0  0  0  0  0  0  0  0  0
   14.5120  -12.1950    3.8670 O   0  0  0  0  0  0  0  0  0  0  0  0
   14.1340  -10.7700    3.9330 C   0  0  1  0  0  0  0  0  0  0  0  0
   14.2970  -10.1260    2.5650 C   0  0  0  0  0  0  0  0  0  0  0  0
   12.6920  -10.6180    4.4780 C   0  0  1  0  0  0  0  0  0  0  0  0
   11.7360  -11.1110    3.5360 O   0  0  0  0  0  0  0  0  0  0  0  0
   12.5680  -11.3390    5.8600 C   0  0  1  0  0  0  0  0  0  0  0  0
   11.2170  -11.2540    6.3990 O   0  0  0  0  0  0  0  0  0  0  0  0
   12.9950  -12.8110    5.7120 C   0  0  2  0  0  0  0  0  0  0  0  0
   12.9500  -13.4020    6.9890 O   0  0  0  0  0  0  0  0  0  0  0  0
  1 10  1  6  0  0  0
  1  2  1  0  0  0  0
  1  7  1  0  0  0  0
  2  3  1  0  0  0  0
  3  4  1  0  0  0  0
  3  8  1  6  0  0  0
  4  5  1  6  0  0  0
  4  6  1  0  0  0  0
  6  7  1  0  0  0  0
  7 17  1  1  0  0  0
  8  9  1  0  0  0  0
 10 11  1  0  0  0  0
 11 13  1  0  0  0  0
 12 13  2  0  0  0  0
 12 14  1  0  0  0  0
 14 16  1  0  0  0  0
 15 16  1  0  0  0  0
 18 17  1  1  0  0  0
 18 19  1  0  0  0  0
 18 26  1  0  0  0  0
 19 20  1  0  0  0  0
 20 21  1  6  0  0  0
 20 22  1  0  0  0  0
 22 23  1  6  0  0  0
 22 24  1  0  0  0  0
 24 26  1  0  0  0  0
 24 25  1  6  0  0  0
 26 27  1  1  0  0  0
M  END
>  <COMPND>
    UNNAMED

>  <AUTHOR>
    GENERATED BY OPEN BABEL 2.4.90

>  <MASTER>
        0    0    0    0    0    0    0    0   27    0   27    0

