__5bxc_A_rec_1zjp_udp_lig_docked.pdb
 OpenBabel10171907413D

 30 31  0  0  1  0  0  0  0  0999 V2000
   10.7320  -23.2350    6.2230 C   0  0  1  0  0  0  0  0  0  0  0  0
    9.8480  -22.3340    5.3570 C   0  0  2  0  0  0  0  0  0  0  0  0
    9.8690  -22.7940    4.0030 O   0  0  0  0  0  0  0  0  0  0  0  0
   10.5970  -21.0070    5.4660 C   0  0  1  0  0  0  0  0  0  0  0  0
   12.0030  -21.5620    5.2420 C   0  0  2  0  0  0  0  0  0  0  0  0
   12.0640  -22.6910    6.1280 O   0  0  0  0  0  0  0  0  0  0  0  0
   10.2350  -20.1680    4.3670 O   0  0  0  0  0  0  0  0  0  0  0  0
   10.7870  -22.8460    3.6930 H   0  0  0  0  0  0  0  0  0  0  0  0
   10.3620  -20.6500    3.5360 H   0  0  0  0  0  0  0  0  0  0  0  0
   10.3050  -23.1880    7.6420 N   0  0  0  0  0  0  0  0  0  0  0  0
    9.1100  -23.8110    8.0310 C   0  0  0  0  0  0  0  0  0  0  0  0
    8.7420  -23.8000    9.3840 N   0  0  0  0  0  0  0  0  0  0  0  0
    9.5580  -23.1750   10.3360 C   0  0  0  0  0  0  0  0  0  0  0  0
   10.7410  -22.5540    9.9450 C   0  0  0  0  0  0  0  0  0  0  0  0
   11.1090  -22.5620    8.6040 C   0  0  0  0  0  0  0  0  0  0  0  0
    8.3830  -24.3520    7.1990 O   0  0  0  0  0  0  0  0  0  0  0  0
    9.2260  -23.1710   11.5200 O   0  0  0  0  0  0  0  0  0  0  0  0
   13.1230  -20.5490    5.4830 C   0  0  0  0  0  0  0  0  0  0  0  0
   12.6170  -19.2200    5.6350 O   0  0  0  0  0  0  0  0  0  0  0  0
   12.9980  -18.3370    6.9280 P   0  0  1  0  0  0  0  0  0  0  0  0
   11.6230  -17.7330    7.5060 O   0  0  0  0  0  0  0  0  0  0  0  0
   13.7360  -19.1030    7.9570 O   0  0  0  0  0  0  0  0  0  0  0  0
   13.1910  -19.8460    8.2610 H   0  0  0  0  0  0  0  0  0  0  0  0
   13.8550  -17.0870    6.3830 O   0  0  0  0  0  0  0  0  0  0  0  0
   13.1420  -15.7720    5.7830 P   0  0  0  0  0  0  0  0  0  0  0  0
   14.4770  -15.2360    5.0580 O   0  0  0  0  0  0  0  0  0  0  0  0
   12.9210  -15.1010    7.2300 O   0  0  0  0  0  0  0  0  0  0  0  0
   12.0330  -16.4040    5.0330 O   0  0  0  0  0  0  0  0  0  0  0  0
   12.4800  -14.2440    7.1240 H   0  0  0  0  0  0  0  0  0  0  0  0
   11.5000  -15.7170    4.6040 H   0  0  0  0  0  0  0  0  0  0  0  0
  1  2  1  0  0  0  0
  1  6  1  0  0  0  0
  1 10  1  1  0  0  0
  2  3  1  6  0  0  0
  2  4  1  0  0  0  0
  3  8  1  0  0  0  0
  4  7  1  6  0  0  0
  4  5  1  0  0  0  0
  5 18  1  1  0  0  0
  5  6  1  0  0  0  0
  7  9  1  0  0  0  0
 10 11  1  0  0  0  0
 10 15  1  0  0  0  0
 11 16  2  0  0  0  0
 11 12  1  0  0  0  0
 12 13  1  0  0  0  0
 13 14  1  0  0  0  0
 13 17  2  0  0  0  0
 14 15  2  0  0  0  0
 18 19  1  0  0  0  0
 19 20  1  0  0  0  0
 20 21  2  1  0  0  0
 20 24  1  0  0  0  0
 20 22  1  0  0  0  0
 22 23  1  0  0  0  0
 24 25  1  0  0  0  0
 25 26  2  0  0  0  0
 25 28  1  0  0  0  0
 25 27  1  0  0  0  0
 27 29  1  0  0  0  0
 28 30  1  0  0  0  0
M  END
>  <MODEL>
       3

>  <COMPND>
    UNNAMED

>  <AUTHOR>
    GENERATED BY OPEN BABEL 2.4.90

>  <MASTER>
        0    0    0    0    0    0    0    0   30    0   30    0

