__5bxc_A_rec_5c3a_urm_lig_min.pdb
 OpenBabel10181901233D

 36 38  0  0  1  0  0  0  0  0999 V2000
   12.0180  -18.3260    6.8030 P   0  0  1  0  0  0  0  0  0  0  0  0
   11.1920  -17.9880    5.5850 O   0  0  0  0  0  0  0  0  0  0  0  0
   11.4700  -18.0120    8.1890 O   0  0  0  0  0  0  0  0  0  0  0  0
   12.4210  -19.8570    6.7800 O   0  0  0  0  0  0  0  0  0  0  0  0
   12.8670  -20.4400    5.5550 C   0  0  0  0  0  0  0  0  0  0  0  0
   10.6650  -23.2150    5.9310 C   0  0  1  0  0  0  0  0  0  0  0  0
    9.7250  -22.3720    5.0690 C   0  0  1  0  0  0  0  0  0  0  0  0
   10.3890  -21.0340    5.1170 C   0  0  1  0  0  0  0  0  0  0  0  0
   11.8520  -21.4380    5.0420 C   0  0  2  0  0  0  0  0  0  0  0  0
   11.9610  -22.6080    5.8450 O   0  0  0  0  0  0  0  0  0  0  0  0
    9.9630  -20.1640    4.0550 O   0  0  0  0  0  0  0  0  0  0  0  0
    9.6870  -22.8700    3.7220 O   0  0  0  0  0  0  0  0  0  0  0  0
   10.2270  -23.2170    7.3380 N   0  0  0  0  0  0  0  0  0  0  0  0
    8.6240  -23.9840    8.9130 N   0  0  0  0  0  0  0  0  0  0  0  0
   10.4140  -22.6100    9.6440 C   0  0  0  0  0  0  0  0  0  0  0  0
   10.8920  -22.5640    8.3310 C   0  0  0  0  0  0  0  0  0  0  0  0
    9.0640  -23.9430    7.6390 C   0  0  0  0  0  0  0  0  0  0  0  0
    8.4550  -24.5370    6.7210 O   0  0  0  0  0  0  0  0  0  0  0  0
    9.2720  -23.3570    9.9080 C   0  0  0  0  0  0  0  0  0  0  0  0
    8.8170  -23.4280   11.0910 O   0  0  0  0  0  0  0  0  0  0  0  0
   13.4930  -17.6530    6.7340 O   0  0  0  0  0  0  0  0  0  0  0  0
   13.8870  -16.2550    6.0750 P   0  0  2  0  0  0  0  0  0  0  0  0
   13.1790  -15.1240    6.9760 O   0  0  0  0  0  0  0  0  0  0  0  0
   13.5360  -16.1730    4.6260 O   0  0  0  0  0  0  0  0  0  0  0  0
   15.6660  -16.0950    6.2730 C   0  0  0  0  0  0  0  0  0  0  0  0
   15.5810  -13.6370    5.8640 O   0  0  0  0  0  0  0  0  0  0  0  0
   16.1250  -13.1890    7.1090 C   0  0  1  0  0  0  0  0  0  0  0  0
   17.5800  -12.8530    6.8740 C   0  0  1  0  0  0  0  0  0  0  0  0
   18.3150  -14.1210    6.4760 C   0  0  1  0  0  0  0  0  0  0  0  0
   17.6170  -14.8140    5.3100 C   0  0  2  0  0  0  0  0  0  0  0  0
   16.0980  -14.9070    5.4110 C   0  0  1  0  0  0  0  0  0  0  0  0
   17.6290  -11.9320    5.7880 O   0  0  0  0  0  0  0  0  0  0  0  0
   19.6080  -13.7890    5.9940 O   0  0  0  0  0  0  0  0  0  0  0  0
   18.1390  -16.1350    5.2170 O   0  0  0  0  0  0  0  0  0  0  0  0
   15.3330  -11.9860    7.5880 C   0  0  0  0  0  0  0  0  0  0  0  0
   13.9740  -12.1620    7.1820 O   0  0  0  0  0  0  0  0  0  0  0  0
  1  2  2  6  0  0  0
  1  4  1  0  0  0  0
  1 21  1  0  0  0  0
  1  3  1  0  0  0  0
  4  5  1  0  0  0  0
  6  7  1  0  0  0  0
  6 10  1  0  0  0  0
  6 13  1  1  0  0  0
  7 12  1  6  0  0  0
  7  8  1  0  0  0  0
  8 11  1  6  0  0  0
  8  9  1  0  0  0  0
  9  5  1  1  0  0  0
  9 10  1  0  0  0  0
 13 17  1  0  0  0  0
 13 16  1  0  0  0  0
 14 17  1  0  0  0  0
 14 19  1  0  0  0  0
 15 16  2  0  0  0  0
 15 19  1  0  0  0  0
 17 18  2  0  0  0  0
 19 20  2  0  0  0  0
 21 22  1  0  0  0  0
 22 24  2  6  0  0  0
 22 25  1  0  0  0  0
 22 23  1  0  0  0  0
 26 31  1  0  0  0  0
 26 27  1  0  0  0  0
 27 28  1  0  0  0  0
 27 35  1  6  0  0  0
 28 32  1  6  0  0  0
 28 29  1  0  0  0  0
 29 30  1  0  0  0  0
 29 33  1  6  0  0  0
 30 34  1  1  0  0  0
 30 31  1  0  0  0  0
 31 25  1  1  0  0  0
 35 36  1  0  0  0  0
M  END
>  <COMPND>
    UNNAMED

>  <AUTHOR>
    GENERATED BY OPEN BABEL 2.4.90

>  <MASTER>
        0    0    0    0    0    0    0    0   36    0   36    0

