__5c1g_A_rec_5c4e_udp_lig_docked.pdb
 OpenBabel10171908523D

 30 31  0  0  1  0  0  0  0  0999 V2000
   10.6110  -23.0410    6.1180 C   0  0  1  0  0  0  0  0  0  0  0  0
    9.7060  -22.2070    5.2270 C   0  0  2  0  0  0  0  0  0  0  0  0
    9.7050  -22.6840    3.8850 O   0  0  0  0  0  0  0  0  0  0  0  0
   10.4400  -20.8920    5.2540 C   0  0  1  0  0  0  0  0  0  0  0  0
   11.8940  -21.3380    5.1880 C   0  0  2  0  0  0  0  0  0  0  0  0
   11.9380  -22.5250    5.9950 O   0  0  0  0  0  0  0  0  0  0  0  0
   10.0310  -20.0550    4.1520 O   0  0  0  0  0  0  0  0  0  0  0  0
   10.6150  -22.7100    3.5510 H   0  0  0  0  0  0  0  0  0  0  0  0
   10.1690  -20.5290    3.3170 H   0  0  0  0  0  0  0  0  0  0  0  0
   10.2030  -22.9630    7.5150 N   0  0  0  0  0  0  0  0  0  0  0  0
    9.0860  -23.7360    7.8710 C   0  0  0  0  0  0  0  0  0  0  0  0
    8.6590  -23.7570    9.1470 N   0  0  0  0  0  0  0  0  0  0  0  0
    9.2820  -23.0720   10.1250 C   0  0  0  0  0  0  0  0  0  0  0  0
   10.4050  -22.3050    9.8040 C   0  0  0  0  0  0  0  0  0  0  0  0
   10.8630  -22.2750    8.4800 C   0  0  0  0  0  0  0  0  0  0  0  0
    8.5030  -24.3850    6.9770 O   0  0  0  0  0  0  0  0  0  0  0  0
    8.8290  -23.1340   11.3100 O   0  0  0  0  0  0  0  0  0  0  0  0
   12.9570  -20.3510    5.6730 C   0  0  0  0  0  0  0  0  0  0  0  0
   12.4240  -19.0240    5.6770 O   0  0  0  0  0  0  0  0  0  0  0  0
   12.0700  -18.2420    7.0420 P   0  0  2  0  0  0  0  0  0  0  0  0
   12.4480  -19.1920    8.1660 O   0  0  0  0  0  0  0  0  0  0  0  0
   10.6600  -17.6830    6.9140 O   0  0  0  0  0  0  0  0  0  0  0  0
   11.8130  -19.9250    8.1970 H   0  0  0  0  0  0  0  0  0  0  0  0
   13.1380  -17.0170    6.9970 O   0  0  0  0  0  0  0  0  0  0  0  0
   13.5800  -16.2060    5.6470 P   0  0  0  0  0  0  0  0  0  0  0  0
   14.5790  -17.0500    4.8860 O   0  0  0  0  0  0  0  0  0  0  0  0
   14.1730  -14.8550    6.0520 O   0  0  0  0  0  0  0  0  0  0  0  0
   12.2550  -16.0870    4.9140 O   0  0  0  0  0  0  0  0  0  0  0  0
   14.8510  -16.5810    4.0810 H   0  0  0  0  0  0  0  0  0  0  0  0
   11.6450  -15.5410    5.4350 H   0  0  0  0  0  0  0  0  0  0  0  0
  1  2  1  0  0  0  0
  1  6  1  0  0  0  0
  1 10  1  1  0  0  0
  2  3  1  6  0  0  0
  2  4  1  0  0  0  0
  3  8  1  0  0  0  0
  4  7  1  6  0  0  0
  4  5  1  0  0  0  0
  5 18  1  1  0  0  0
  5  6  1  0  0  0  0
  7  9  1  0  0  0  0
 10 11  1  0  0  0  0
 10 15  1  0  0  0  0
 11 16  2  0  0  0  0
 11 12  1  0  0  0  0
 12 13  1  0  0  0  0
 13 14  1  0  0  0  0
 13 17  2  0  0  0  0
 14 15  2  0  0  0  0
 18 19  1  0  0  0  0
 19 20  1  0  0  0  0
 20 22  2  1  0  0  0
 20 24  1  0  0  0  0
 20 21  1  0  0  0  0
 21 23  1  0  0  0  0
 24 25  1  0  0  0  0
 25 27  2  0  0  0  0
 25 28  1  0  0  0  0
 25 26  1  0  0  0  0
 26 29  1  0  0  0  0
 28 30  1  0  0  0  0
M  END
>  <MODEL>
       4

>  <COMPND>
    UNNAMED

>  <AUTHOR>
    GENERATED BY OPEN BABEL 2.4.90

>  <MASTER>
        0    0    0    0    0    0    0    0   30    0   30    0

