__5c1g_A_rec_2rj7_gdu_lig_docked.pdb
 OpenBabel10171908453D

 44 46  0  0  1  0  0  0  0  0999 V2000
   12.9060  -18.2770    7.3750 P   0  0  1  0  0  0  0  0  0  0  0  0
   11.5510  -17.9010    7.8430 O   0  0  0  0  0  0  0  0  0  0  0  0
   14.0610  -17.9610    8.2260 O   0  0  0  0  0  0  0  0  0  0  0  0
   14.0660  -17.0120    8.4250 H   0  0  0  0  0  0  0  0  0  0  0  0
   12.8860  -19.8840    7.0300 O   0  0  0  0  0  0  0  0  0  0  0  0
   13.1090  -20.3150    5.6710 C   0  0  0  0  0  0  0  0  0  0  0  0
   10.7010  -22.9660    6.1690 C   0  0  1  0  0  0  0  0  0  0  0  0
    9.8100  -22.0390    5.3240 C   0  0  2  0  0  0  0  0  0  0  0  0
    9.7490  -22.5520    3.9780 O   0  0  0  0  0  0  0  0  0  0  0  0
   10.6230  -20.7550    5.3580 C   0  0  1  0  0  0  0  0  0  0  0  0
   12.0530  -21.3280    5.2300 C   0  0  2  0  0  0  0  0  0  0  0  0
   12.0750  -22.4480    6.1400 O   0  0  0  0  0  0  0  0  0  0  0  0
   10.3170  -19.9520    4.2230 O   0  0  0  0  0  0  0  0  0  0  0  0
   10.6490  -22.6620    3.6330 H   0  0  0  0  0  0  0  0  0  0  0  0
   10.4530  -20.4690    3.4140 H   0  0  0  0  0  0  0  0  0  0  0  0
   10.2610  -22.9570    7.5770 N   0  0  0  0  0  0  0  0  0  0  0  0
    9.0920  -23.6950    7.8880 C   0  0  0  0  0  0  0  0  0  0  0  0
    8.6200  -23.7320    9.1910 N   0  0  0  0  0  0  0  0  0  0  0  0
    9.2760  -23.0930   10.2670 C   0  0  0  0  0  0  0  0  0  0  0  0
   10.5430  -22.2650   10.0490 C   0  0  0  0  0  0  0  0  0  0  0  0
   11.0670  -22.2220    8.6040 C   0  0  0  0  0  0  0  0  0  0  0  0
    8.4780  -24.2720    6.9860 O   0  0  0  0  0  0  0  0  0  0  0  0
    8.8060  -23.1700   11.4110 O   0  0  0  0  0  0  0  0  0  0  0  0
   13.1560  -17.6900    5.8930 O   0  0  0  0  0  0  0  0  0  0  0  0
   13.5570  -16.1050    5.6570 P   0  0  2  0  0  0  0  0  0  0  0  0
   12.9830  -15.3810    6.8180 O   0  0  0  0  0  0  0  0  0  0  0  0
   13.2150  -15.6110    4.2960 O   0  0  0  0  0  0  0  0  0  0  0  0
   13.1840  -14.4350    6.7410 H   0  0  0  0  0  0  0  0  0  0  0  0
   15.1300  -16.1240    5.8470 O   0  0  0  0  0  0  0  0  0  0  0  0
   16.2820  -16.6450    5.0000 C   0  0  2  0  0  0  0  0  0  0  0  0
   16.2770  -17.5900    3.7490 C   0  0  1  0  0  0  0  0  0  0  0  0
   16.0010  -19.0550    4.1180 C   0  0  2  0  0  0  0  0  0  0  0  0
   16.9600  -19.5690    5.2140 C   0  0  2  0  0  0  0  0  0  0  0  0
   16.9690  -18.6110    6.4310 C   0  0  2  0  0  0  0  0  0  0  0  0
   15.3850  -17.1140    2.7300 O   0  0  0  0  0  0  0  0  0  0  0  0
   16.1280  -19.8530    2.9440 O   0  0  0  0  0  0  0  0  0  0  0  0
   18.2770  -19.6960    4.6720 O   0  0  0  0  0  0  0  0  0  0  0  0
   17.2150  -17.2580    5.9560 O   0  0  0  0  0  0  0  0  0  0  0  0
   14.4750  -17.1230    3.0670 H   0  0  0  0  0  0  0  0  0  0  0  0
   17.0320  -19.7790    2.6000 H   0  0  0  0  0  0  0  0  0  0  0  0
   18.5860  -18.8290    4.3660 H   0  0  0  0  0  0  0  0  0  0  0  0
   18.0690  -18.8290    7.5090 C   0  0  0  0  0  0  0  0  0  0  0  0
   18.5990  -20.1590    7.3250 O   0  0  0  0  0  0  0  0  0  0  0  0
   17.8840  -20.8070    7.4180 H   0  0  0  0  0  0  0  0  0  0  0  0
  1  2  2  1  0  0  0
  1 24  1  0  0  0  0
  1  5  1  0  0  0  0
  1  3  1  0  0  0  0
  3  4  1  0  0  0  0
  5  6  1  0  0  0  0
  7  8  1  0  0  0  0
  7 12  1  0  0  0  0
  7 16  1  1  0  0  0
  8  9  1  6  0  0  0
  8 10  1  0  0  0  0
  9 14  1  0  0  0  0
 10 13  1  6  0  0  0
 10 11  1  0  0  0  0
 11  6  1  1  0  0  0
 11 12  1  0  0  0  0
 13 15  1  0  0  0  0
 16 17  1  0  0  0  0
 16 21  1  0  0  0  0
 17 22  2  0  0  0  0
 17 18  1  0  0  0  0
 18 19  1  0  0  0  0
 19 20  1  0  0  0  0
 19 23  2  0  0  0  0
 20 21  2  0  0  0  0
 24 25  1  0  0  0  0
 25 27  2  6  0  0  0
 25 29  1  0  0  0  0
 25 26  1  0  0  0  0
 26 28  1  0  0  0  0
 30 29  1  1  0  0  0
 30 31  1  0  0  0  0
 30 38  1  0  0  0  0
 31 35  1  6  0  0  0
 31 32  1  0  0  0  0
 32 36  1  6  0  0  0
 32 33  1  0  0  0  0
 33 37  1  6  0  0  0
 33 34  1  0  0  0  0
 34 38  1  0  0  0  0
 34 42  1  1  0  0  0
 35 39  1  0  0  0  0
 36 40  1  0  0  0  0
 37 41  1  0  0  0  0
 42 43  1  0  0  0  0
 43 44  1  0  0  0  0
M  END
>  <MODEL>
       1

>  <COMPND>
    UNNAMED

>  <AUTHOR>
    GENERATED BY OPEN BABEL 2.4.90

>  <MASTER>
        0    0    0    0    0    0    0    0   44    0   44    0

