__5c1g_A_rec_5c4e_4ya_lig_min.pdb
 OpenBabel10181901353D

 28 29  0  0  1  0  0  0  0  0999 V2000
   17.6680  -11.0330    6.1690 C   0  0  2  0  0  0  0  0  0  0  0  0
   19.0350  -11.2650    5.8510 O   0  0  0  0  0  0  0  0  0  0  0  0
   19.5910  -12.3190    6.6310 C   0  0  1  0  0  0  0  0  0  0  0  0
   18.9140  -13.6450    6.2150 C   0  0  2  0  0  0  0  0  0  0  0  0
   19.0940  -13.9030    4.7770 O   0  0  0  0  0  0  0  0  0  0  0  0
   17.3800  -13.5450    6.4820 C   0  0  2  0  0  0  0  0  0  0  0  0
   16.7150  -14.7160    5.9630 O   0  0  0  0  0  0  0  0  0  0  0  0
   16.7980  -12.2670    5.8070 C   0  0  1  0  0  0  0  0  0  0  0  0
   21.7080  -11.2740    7.0290 O   0  0  0  0  0  0  0  0  0  0  0  0
   21.1000  -12.3810    6.3480 C   0  0  0  0  0  0  0  0  0  0  0  0
   17.2050   -9.9570    5.4060 O   0  0  0  0  0  0  0  0  0  0  0  0
   17.7860   -8.7110    5.9090 C   0  0  0  0  0  0  0  0  0  0  0  0
   16.7500   -7.7130    6.3870 C   0  0  0  0  0  0  0  0  0  0  0  0
   15.5970   -8.3660    7.1310 C   0  0  0  0  0  0  0  0  0  0  0  0
   14.7090   -7.3640    7.8950 C   0  0  0  0  0  0  0  0  0  0  0  0
   12.3140   -6.8530    8.6070 C   0  0  0  0  0  0  0  0  0  0  0  0
   13.2310   -7.6650    7.6680 C   0  0  0  0  0  0  0  0  0  0  0  0
   15.4110  -12.0590    6.2280 O   0  0  0  0  0  0  0  0  0  0  0  0
   14.4410  -12.4990    5.2970 C   0  0  1  0  0  0  0  0  0  0  0  0
   13.1120  -12.5580    6.0490 C   0  0  1  0  0  0  0  0  0  0  0  0
   13.3000  -13.2690    7.2840 O   0  0  0  0  0  0  0  0  0  0  0  0
   12.6870  -11.1070    6.3720 C   0  0  2  0  0  0  0  0  0  0  0  0
   11.3730  -11.1420    6.9820 O   0  0  0  0  0  0  0  0  0  0  0  0
   12.6360  -10.2740    5.1100 C   0  0  2  0  0  0  0  0  0  0  0  0
   11.6290  -10.7700    4.2130 O   0  0  0  0  0  0  0  0  0  0  0  0
   13.9970  -10.2340    4.4030 C   0  0  1  0  0  0  0  0  0  0  0  0
   14.3840  -11.6250    4.1820 O   0  0  0  0  0  0  0  0  0  0  0  0
   14.0490   -9.5320    3.0630 C   0  0  0  0  0  0  0  0  0  0  0  0
  1 11  1  6  0  0  0
  1  2  1  0  0  0  0
  1  8  1  0  0  0  0
  2  3  1  0  0  0  0
  3  4  1  0  0  0  0
  3 10  1  6  0  0  0
  4  5  1  6  0  0  0
  4  6  1  0  0  0  0
  6  8  1  0  0  0  0
  6  7  1  6  0  0  0
  8 18  1  1  0  0  0
  9 10  1  0  0  0  0
 11 12  1  0  0  0  0
 12 13  1  0  0  0  0
 13 14  1  0  0  0  0
 14 15  1  0  0  0  0
 15 17  1  0  0  0  0
 16 17  1  0  0  0  0
 19 18  1  1  0  0  0
 19 27  1  0  0  0  0
 19 20  1  0  0  0  0
 20 22  1  0  0  0  0
 20 21  1  1  0  0  0
 22 24  1  0  0  0  0
 22 23  1  6  0  0  0
 24 25  1  6  0  0  0
 24 26  1  0  0  0  0
 26 28  1  6  0  0  0
 26 27  1  0  0  0  0
M  END
>  <COMPND>
    UNNAMED

>  <AUTHOR>
    GENERATED BY OPEN BABEL 2.4.90

>  <MASTER>
        0    0    0    0    0    0    0    0   28    0   28    0

