__5c1g_A_rec_5c1g_da8_lig_docked.pdb
 OpenBabel10171908433D

 32 33  0  0  1  0  0  0  0  0999 V2000
   17.8140  -10.6740    6.3190 C   0  0  2  0  0  0  0  0  0  0  0  0
   19.2110  -10.7660    5.9820 O   0  0  0  0  0  0  0  0  0  0  0  0
   19.7890  -11.8350    6.7440 C   0  0  1  0  0  0  0  0  0  0  0  0
   19.1290  -13.1890    6.4370 C   0  0  2  0  0  0  0  0  0  0  0  0
   19.2990  -13.5310    5.0720 O   0  0  0  0  0  0  0  0  0  0  0  0
   17.6470  -13.0320    6.7870 C   0  0  0  0  0  0  0  0  0  0  0  0
   17.0400  -11.8990    5.9140 C   0  0  1  0  0  0  0  0  0  0  0  0
   18.9080  -12.8410    4.5140 H   0  0  0  0  0  0  0  0  0  0  0  0
   21.2870  -11.7910    6.4310 C   0  0  0  0  0  0  0  0  0  0  0  0
   21.7210  -13.0960    6.0390 O   0  0  0  0  0  0  0  0  0  0  0  0
   21.5540  -13.7230    6.7600 H   0  0  0  0  0  0  0  0  0  0  0  0
   17.1450   -9.6420    5.6270 O   0  0  0  0  0  0  0  0  0  0  0  0
   17.5740   -8.3880    6.1410 C   0  0  0  0  0  0  0  0  0  0  0  0
   16.2770   -7.6450    6.4280 C   0  0  0  0  0  0  0  0  0  0  0  0
   15.9950   -7.9130    7.9160 C   0  0  0  0  0  0  0  0  0  0  0  0
   14.6260   -8.5050    8.2300 C   0  0  0  0  0  0  0  0  0  0  0  0
   12.4000   -7.5970    7.4240 C   0  0  0  0  0  0  0  0  0  0  0  0
   13.6110   -7.3650    8.3310 C   0  0  0  0  0  0  0  0  0  0  0  0
   15.6630  -11.8000    6.2940 O   0  0  0  0  0  0  0  0  0  0  0  0
   14.7730  -12.4630    5.3950 C   0  0  2  0  0  0  0  0  0  0  0  0
   14.7040  -11.6270    4.2100 O   0  0  0  0  0  0  0  0  0  0  0  0
   14.2110  -10.2940    4.4960 C   0  0  1  0  0  0  0  0  0  0  0  0
   14.1990   -9.4770    3.2030 C   0  0  0  0  0  0  0  0  0  0  0  0
   12.8000  -10.3710    5.0830 C   0  0  1  0  0  0  0  0  0  0  0  0
   11.8800  -10.9410    4.1530 O   0  0  0  0  0  0  0  0  0  0  0  0
   12.8690  -11.1860    6.3620 C   0  0  1  0  0  0  0  0  0  0  0  0
   11.5620  -11.2980    6.9270 O   0  0  0  0  0  0  0  0  0  0  0  0
   13.3870  -12.5780    6.0280 C   0  0  2  0  0  0  0  0  0  0  0  0
   13.4470  -13.3260    7.2360 O   0  0  0  0  0  0  0  0  0  0  0  0
   12.1640  -11.8400    3.9260 H   0  0  0  0  0  0  0  0  0  0  0  0
   10.9720  -11.7330    6.2920 H   0  0  0  0  0  0  0  0  0  0  0  0
   14.0350  -12.8770    7.8640 H   0  0  0  0  0  0  0  0  0  0  0  0
  1  7  1  0  0  0  0
  1 12  1  6  0  0  0
  1  2  1  0  0  0  0
  2  3  1  0  0  0  0
  3  4  1  0  0  0  0
  3  9  1  6  0  0  0
  4  5  1  6  0  0  0
  4  6  1  0  0  0  0
  5  8  1  0  0  0  0
  6  7  1  0  0  0  0
  7 19  1  1  0  0  0
  9 10  1  0  0  0  0
 10 11  1  0  0  0  0
 12 13  1  0  0  0  0
 13 14  1  0  0  0  0
 14 15  1  0  0  0  0
 15 16  1  0  0  0  0
 16 18  1  0  0  0  0
 17 18  1  0  0  0  0
 20 19  1  1  0  0  0
 20 21  1  0  0  0  0
 20 28  1  0  0  0  0
 21 22  1  0  0  0  0
 22 23  1  6  0  0  0
 22 24  1  0  0  0  0
 24 25  1  6  0  0  0
 24 26  1  0  0  0  0
 25 30  1  0  0  0  0
 26 28  1  0  0  0  0
 26 27  1  6  0  0  0
 27 31  1  0  0  0  0
 28 29  1  1  0  0  0
 29 32  1  0  0  0  0
M  END
>  <MODEL>
       4

>  <COMPND>
    UNNAMED

>  <AUTHOR>
    GENERATED BY OPEN BABEL 2.4.90

>  <MASTER>
        0    0    0    0    0    0    0    0   32    0   32    0

