__5c1g_A_rec_2o1h_udp_lig_docked.pdb
 OpenBabel10171908423D

 30 31  0  0  1  0  0  0  0  0999 V2000
   10.6150  -23.0450    6.0860 C   0  0  1  0  0  0  0  0  0  0  0  0
    9.6680  -22.1840    5.2590 C   0  0  2  0  0  0  0  0  0  0  0  0
    9.6390  -22.5950    3.9120 O   0  0  0  0  0  0  0  0  0  0  0  0
   10.4170  -20.8890    5.2430 C   0  0  1  0  0  0  0  0  0  0  0  0
   11.8750  -21.3430    5.1100 C   0  0  2  0  0  0  0  0  0  0  0  0
   11.9280  -22.5490    5.8520 O   0  0  0  0  0  0  0  0  0  0  0  0
    9.9120  -20.1630    4.1390 O   0  0  0  0  0  0  0  0  0  0  0  0
   10.5410  -22.5910    3.5530 H   0  0  0  0  0  0  0  0  0  0  0  0
    9.9750  -20.7080    3.3390 H   0  0  0  0  0  0  0  0  0  0  0  0
   10.2610  -22.9640    7.5230 N   0  0  0  0  0  0  0  0  0  0  0  0
    9.1070  -23.6150    7.9660 C   0  0  0  0  0  0  0  0  0  0  0  0
    8.7840  -23.5440    9.3420 N   0  0  0  0  0  0  0  0  0  0  0  0
    9.5910  -22.8420   10.2670 C   0  0  0  0  0  0  0  0  0  0  0  0
   10.7400  -22.1900    9.7830 C   0  0  0  0  0  0  0  0  0  0  0  0
   10.9270  -22.1180    8.3890 C   0  0  0  0  0  0  0  0  0  0  0  0
    8.3930  -24.2540    7.1620 O   0  0  0  0  0  0  0  0  0  0  0  0
    9.2940  -22.7720   11.4880 O   0  0  0  0  0  0  0  0  0  0  0  0
   12.9760  -20.4510    5.6760 C   0  0  0  0  0  0  0  0  0  0  0  0
   12.5600  -19.1140    5.7030 O   0  0  0  0  0  0  0  0  0  0  0  0
   12.5180  -18.3410    7.1110 P   0  0  1  0  0  0  0  0  0  0  0  0
   11.1180  -17.8840    7.4240 O   0  0  0  0  0  0  0  0  0  0  0  0
   12.9650  -19.1460    8.2930 O   0  0  0  0  0  0  0  0  0  0  0  0
   12.3360  -19.8670    8.4500 H   0  0  0  0  0  0  0  0  0  0  0  0
   13.5510  -17.1290    6.8250 O   0  0  0  0  0  0  0  0  0  0  0  0
   13.4060  -16.0660    5.6010 P   0  0  0  0  0  0  0  0  0  0  0  0
   14.4140  -16.2090    4.5270 O   0  0  0  0  0  0  0  0  0  0  0  0
   12.0890  -16.3480    4.9610 O   0  0  0  0  0  0  0  0  0  0  0  0
   13.4720  -14.6990    6.2140 O   0  0  0  0  0  0  0  0  0  0  0  0
   11.9530  -15.7370    4.2200 H   0  0  0  0  0  0  0  0  0  0  0  0
   14.3450  -14.5660    6.6150 H   0  0  0  0  0  0  0  0  0  0  0  0
  1  2  1  0  0  0  0
  1  6  1  0  0  0  0
  1 10  1  1  0  0  0
  2  3  1  6  0  0  0
  2  4  1  0  0  0  0
  3  8  1  0  0  0  0
  4  7  1  6  0  0  0
  4  5  1  0  0  0  0
  5  6  1  0  0  0  0
  5 18  1  1  0  0  0
  7  9  1  0  0  0  0
 10 11  1  0  0  0  0
 10 15  1  0  0  0  0
 11 16  2  0  0  0  0
 11 12  1  0  0  0  0
 12 13  1  0  0  0  0
 13 14  1  0  0  0  0
 13 17  2  0  0  0  0
 14 15  1  0  0  0  0
 18 19  1  0  0  0  0
 19 20  1  0  0  0  0
 20 21  2  1  0  0  0
 20 24  1  0  0  0  0
 20 22  1  0  0  0  0
 22 23  1  0  0  0  0
 24 25  1  0  0  0  0
 25 26  2  0  0  0  0
 25 28  1  0  0  0  0
 25 27  1  0  0  0  0
 27 29  1  0  0  0  0
 28 30  1  0  0  0  0
M  END
>  <MODEL>
       3

>  <COMPND>
    UNNAMED

>  <AUTHOR>
    GENERATED BY OPEN BABEL 2.4.90

>  <MASTER>
        0    0    0    0    0    0    0    0   30    0   30    0

