__5c1l_A_rec_1lzi_udp_lig_min.pdb
 OpenBabel10181912143D

 25 26  0  0  1  0  0  0  0  0999 V2000
   10.2870  -22.9920    5.6620 C   0  0  1  0  0  0  0  0  0  0  0  0
    9.4960  -21.9910    4.7900 C   0  0  2  0  0  0  0  0  0  0  0  0
    9.2770  -22.5150    3.5010 O   0  0  0  0  0  0  0  0  0  0  0  0
   10.3990  -20.7550    4.7810 C   0  0  1  0  0  0  0  0  0  0  0  0
   11.7890  -21.3750    4.7790 C   0  0  2  0  0  0  0  0  0  0  0  0
   11.6530  -22.5440    5.6290 O   0  0  0  0  0  0  0  0  0  0  0  0
   10.1540  -20.0480    3.5640 O   0  0  0  0  0  0  0  0  0  0  0  0
    9.8330  -23.1290    7.0790 N   0  0  0  0  0  0  0  0  0  0  0  0
    8.8170  -24.0550    7.3710 C   0  0  0  0  0  0  0  0  0  0  0  0
    8.4000  -24.1790    8.7000 N   0  0  0  0  0  0  0  0  0  0  0  0
    8.8660  -23.4860    9.8410 C   0  0  0  0  0  0  0  0  0  0  0  0
   10.0070  -22.4340    9.5610 C   0  0  0  0  0  0  0  0  0  0  0  0
   10.4150  -22.3450    8.1040 C   0  0  0  0  0  0  0  0  0  0  0  0
    8.2980  -24.7480    6.4860 O   0  0  0  0  0  0  0  0  0  0  0  0
    8.3520  -23.7530   10.9300 O   0  0  0  0  0  0  0  0  0  0  0  0
   12.8930  -20.4710    5.3710 C   0  0  0  0  0  0  0  0  0  0  0  0
   12.3340  -19.6470    6.3820 O   0  0  0  0  0  0  0  0  0  0  0  0
   12.2040  -18.0840    6.5510 P   0  0  1  0  0  0  0  0  0  0  0  0
   11.4380  -17.5630    5.3840 O   0  0  0  0  0  0  0  0  0  0  0  0
   11.6220  -17.8320    7.9100 O   0  0  0  0  0  0  0  0  0  0  0  0
   13.7460  -17.7200    6.4150 O   0  0  0  0  0  0  0  0  0  0  0  0
   14.4940  -16.5060    5.6880 P   0  0  0  0  0  0  0  0  0  0  0  0
   14.6750  -17.0140    4.1600 O   0  0  0  0  0  0  0  0  0  0  0  0
   15.7710  -16.4430    6.4330 O   0  0  0  0  0  0  0  0  0  0  0  0
   13.6580  -15.2870    5.5560 O   0  0  0  0  0  0  0  0  0  0  0  0
  1  2  1  0  0  0  0
  1  6  1  0  0  0  0
  1  8  1  1  0  0  0
  2  3  1  6  0  0  0
  2  4  1  0  0  0  0
  4  7  1  6  0  0  0
  4  5  1  0  0  0  0
  5 16  1  1  0  0  0
  5  6  1  0  0  0  0
  8  9  1  0  0  0  0
  8 13  1  0  0  0  0
  9 14  2  0  0  0  0
  9 10  1  0  0  0  0
 10 11  1  0  0  0  0
 11 12  1  0  0  0  0
 11 15  2  0  0  0  0
 12 13  2  0  0  0  0
 16 17  1  0  0  0  0
 17 18  1  0  0  0  0
 18 19  2  6  0  0  0
 18 21  1  0  0  0  0
 18 20  1  0  0  0  0
 21 22  1  0  0  0  0
 22 23  2  0  0  0  0
 22 24  1  0  0  0  0
 22 25  1  0  0  0  0
M  END
>  <COMPND>
    UNNAMED

>  <AUTHOR>
    GENERATED BY OPEN BABEL 2.4.90

>  <MASTER>
        0    0    0    0    0    0    0    0   25    0   25    0

