__5c1l_A_rec_3v0q_udp_lig_min.pdb
 OpenBabel10181910173D

 25 26  0  0  1  0  0  0  0  0999 V2000
   10.3480  -23.1100    5.6160 C   0  0  1  0  0  0  0  0  0  0  0  0
    9.4790  -22.1850    4.7850 C   0  0  2  0  0  0  0  0  0  0  0  0
    9.4660  -22.6710    3.4580 O   0  0  0  0  0  0  0  0  0  0  0  0
   10.2620  -20.8980    4.8300 C   0  0  1  0  0  0  0  0  0  0  0  0
   11.6890  -21.4130    4.7890 C   0  0  2  0  0  0  0  0  0  0  0  0
   11.6710  -22.6130    5.5430 O   0  0  0  0  0  0  0  0  0  0  0  0
    9.9410  -20.0810    3.7270 O   0  0  0  0  0  0  0  0  0  0  0  0
    9.8700  -23.1950    7.0200 N   0  0  0  0  0  0  0  0  0  0  0  0
    8.9220  -24.1610    7.3070 C   0  0  0  0  0  0  0  0  0  0  0  0
    8.4360  -24.3120    8.5960 N   0  0  0  0  0  0  0  0  0  0  0  0
    8.9030  -23.4960    9.6130 C   0  0  0  0  0  0  0  0  0  0  0  0
    9.8650  -22.5190    9.3240 C   0  0  0  0  0  0  0  0  0  0  0  0
   10.2640  -22.3120    7.9920 C   0  0  0  0  0  0  0  0  0  0  0  0
    8.4980  -24.8800    6.4060 O   0  0  0  0  0  0  0  0  0  0  0  0
    8.4540  -23.6560   10.7550 O   0  0  0  0  0  0  0  0  0  0  0  0
   12.6970  -20.4260    5.3640 C   0  0  0  0  0  0  0  0  0  0  0  0
   12.1590  -19.9190    6.5620 O   0  0  0  0  0  0  0  0  0  0  0  0
   12.0320  -18.3370    6.7000 P   0  0  2  0  0  0  0  0  0  0  0  0
   11.4620  -17.9590    8.0090 O   0  0  0  0  0  0  0  0  0  0  0  0
   11.2480  -17.8390    5.5450 O   0  0  0  0  0  0  0  0  0  0  0  0
   13.5430  -17.8600    6.5680 O   0  0  0  0  0  0  0  0  0  0  0  0
   14.0090  -16.5070    5.8190 P   0  0  0  0  0  0  0  0  0  0  0  0
   12.9910  -15.4400    5.9780 O   0  0  0  0  0  0  0  0  0  0  0  0
   14.2810  -16.7030    4.3730 O   0  0  0  0  0  0  0  0  0  0  0  0
   15.2440  -16.1020    6.5280 O   0  0  0  0  0  0  0  0  0  0  0  0
  1  2  1  0  0  0  0
  1  6  1  0  0  0  0
  1  8  1  1  0  0  0
  2  3  1  6  0  0  0
  2  4  1  0  0  0  0
  4  7  1  6  0  0  0
  4  5  1  0  0  0  0
  5 16  1  1  0  0  0
  5  6  1  0  0  0  0
  8  9  1  0  0  0  0
  8 13  1  0  0  0  0
  9 14  2  0  0  0  0
  9 10  1  0  0  0  0
 10 11  1  0  0  0  0
 11 12  1  0  0  0  0
 11 15  2  0  0  0  0
 12 13  2  0  0  0  0
 16 17  1  0  0  0  0
 17 18  1  0  0  0  0
 18 20  2  6  0  0  0
 18 21  1  0  0  0  0
 18 19  1  0  0  0  0
 21 22  1  0  0  0  0
 22 24  2  0  0  0  0
 22 25  1  0  0  0  0
 22 23  1  0  0  0  0
M  END
>  <COMPND>
    UNNAMED

>  <AUTHOR>
    GENERATED BY OPEN BABEL 2.4.90

>  <MASTER>
        0    0    0    0    0    0    0    0   25    0   25    0

