__5c1l_A_rec_2rj4_ad7_lig_min.pdb
 OpenBabel10181911433D

 27 28  0  0  1  0  0  0  0  0999 V2000
   17.5020  -11.1860    6.1400 C   0  0  2  0  0  0  0  0  0  0  0  0
   18.8930  -11.3460    5.8140 O   0  0  0  0  0  0  0  0  0  0  0  0
   19.5110  -12.4510    6.5040 C   0  0  1  0  0  0  0  0  0  0  0  0
   18.8000  -13.7600    6.1390 C   0  0  2  0  0  0  0  0  0  0  0  0
   18.8210  -13.9580    4.7200 O   0  0  0  0  0  0  0  0  0  0  0  0
   17.3360  -13.6650    6.5190 C   0  0  2  0  0  0  0  0  0  0  0  0
   16.6750  -14.9010    6.0760 N   0  0  0  0  0  0  0  0  0  0  0  0
   16.6900  -12.4460    5.8290 C   0  0  1  0  0  0  0  0  0  0  0  0
   20.9820  -12.4960    6.1070 C   0  0  0  0  0  0  0  0  0  0  0  0
   21.7090  -11.5370    6.8790 O   0  0  0  0  0  0  0  0  0  0  0  0
   17.0020  -10.0790    5.3760 O   0  0  0  0  0  0  0  0  0  0  0  0
   17.5440   -8.8420    5.9110 C   0  0  0  0  0  0  0  0  0  0  0  0
   16.4950   -7.8180    6.3690 C   0  0  0  0  0  0  0  0  0  0  0  0
   15.3280   -8.4530    7.1400 C   0  0  0  0  0  0  0  0  0  0  0  0
   14.3230   -7.3940    7.6090 C   0  0  0  0  0  0  0  0  0  0  0  0
   11.8410   -7.4690    7.1530 C   0  0  0  0  0  0  0  0  0  0  0  0
   12.9850   -8.0340    7.9940 C   0  0  0  0  0  0  0  0  0  0  0  0
   15.3460  -12.2300    6.2960 O   0  0  0  0  0  0  0  0  0  0  0  0
   14.3670  -12.5460    5.2720 C   0  0  1  0  0  0  0  0  0  0  0  0
   13.0040  -12.6830    5.9940 C   0  0  0  0  0  0  0  0  0  0  0  0
   14.3440  -11.5870    4.1450 O   0  0  0  0  0  0  0  0  0  0  0  0
   13.8080  -10.2580    4.4410 C   0  0  1  0  0  0  0  0  0  0  0  0
   13.8180   -9.3970    3.1740 C   0  0  0  0  0  0  0  0  0  0  0  0
   12.4130  -10.3960    5.0700 C   0  0  1  0  0  0  0  0  0  0  0  0
   11.4910  -10.9640    4.1250 O   0  0  0  0  0  0  0  0  0  0  0  0
   12.4850  -11.2770    6.3310 C   0  0  1  0  0  0  0  0  0  0  0  0
   11.1960  -11.3590    6.9440 O   0  0  0  0  0  0  0  0  0  0  0  0
  1 11  1  6  0  0  0
  1  2  1  0  0  0  0
  1  8  1  0  0  0  0
  2  3  1  0  0  0  0
  3  9  1  6  0  0  0
  3  4  1  0  0  0  0
  4  5  1  6  0  0  0
  4  6  1  0  0  0  0
  6  8  1  0  0  0  0
  6  7  1  6  0  0  0
  8 18  1  1  0  0  0
  9 10  1  0  0  0  0
 11 12  1  0  0  0  0
 12 13  1  0  0  0  0
 13 14  1  0  0  0  0
 14 15  1  0  0  0  0
 15 17  1  0  0  0  0
 16 17  1  0  0  0  0
 19 18  1  1  0  0  0
 19 21  1  0  0  0  0
 19 20  1  0  0  0  0
 20 26  1  0  0  0  0
 21 22  1  0  0  0  0
 22 23  1  6  0  0  0
 22 24  1  0  0  0  0
 24 25  1  6  0  0  0
 24 26  1  0  0  0  0
 26 27  1  6  0  0  0
M  END
>  <COMPND>
    UNNAMED

>  <AUTHOR>
    GENERATED BY OPEN BABEL 2.4.90

>  <MASTER>
        0    0    0    0    0    0    0    0   27    0   27    0

