__5c1l_A_rec_1zj1_nlc_lig_docked.pdb
 OpenBabel10181918393D

 26 27  0  0  1  0  0  0  0  0999 V2000
   17.3400   -6.3920    7.9900 C   0  0  2  0  0  0  0  0  0  0  0  0
   16.2360   -5.8740    7.2400 O   0  0  0  0  0  0  0  0  0  0  0  0
   18.4120   -6.9210    7.0330 C   0  0  1  0  0  0  0  0  0  0  0  0
   17.8730   -8.1230    6.2540 C   0  0  1  0  0  0  0  0  0  0  0  0
   18.9250   -8.6930    5.4720 O   0  0  0  0  0  0  0  0  0  0  0  0
   17.3280   -9.1840    7.2140 C   0  0  1  0  0  0  0  0  0  0  0  0
   16.3010   -8.5440    8.1380 C   0  0  2  0  0  0  0  0  0  0  0  0
   16.8910   -7.4470    8.8590 O   0  0  0  0  0  0  0  0  0  0  0  0
   18.7800   -5.8570    6.0880 N   0  0  0  0  0  0  0  0  0  0  0  0
   20.0400   -5.6260    5.7300 C   0  0  0  0  0  0  0  0  0  0  0  0
   20.2260   -4.4700    4.7450 C   0  0  0  0  0  0  0  0  0  0  0  0
   21.0050   -6.2680    6.1420 O   0  0  0  0  0  0  0  0  0  0  0  0
   15.7650   -9.5720    9.1370 C   0  0  0  0  0  0  0  0  0  0  0  0
   14.5890  -10.1940    8.6110 O   0  0  0  0  0  0  0  0  0  0  0  0
   16.7420  -10.2580    6.4660 O   0  0  0  0  0  0  0  0  0  0  0  0
   16.4840  -12.6570    6.3790 C   0  0  2  0  0  0  0  0  0  0  0  0
   15.2400  -12.5930    7.0820 O   0  0  0  0  0  0  0  0  0  0  0  0
   17.1800  -13.9880    6.6690 C   0  0  1  0  0  0  0  0  0  0  0  0
   16.3830  -15.0570    6.1540 O   0  0  0  0  0  0  0  0  0  0  0  0
   18.5580  -14.0080    6.0010 C   0  0  2  0  0  0  0  0  0  0  0  0
   19.3600  -12.7880    6.4590 C   0  0  2  0  0  0  0  0  0  0  0  0
   17.3850  -11.4950    6.8060 C   0  0  1  0  0  0  0  0  0  0  0  0
   18.6470  -11.5860    6.1210 O   0  0  0  0  0  0  0  0  0  0  0  0
   18.3860  -13.9620    4.5820 O   0  0  0  0  0  0  0  0  0  0  0  0
   20.7360  -12.7760    5.7880 C   0  0  0  0  0  0  0  0  0  0  0  0
   21.6720  -12.0960    6.6260 O   0  0  0  0  0  0  0  0  0  0  0  0
  1  3  1  0  0  0  0
  1  2  1  6  0  0  0
  1  8  1  0  0  0  0
  3  9  1  6  0  0  0
  3  4  1  0  0  0  0
  4  5  1  1  0  0  0
  4  6  1  0  0  0  0
  6 15  1  6  0  0  0
  6  7  1  0  0  0  0
  7  8  1  0  0  0  0
  7 13  1  1  0  0  0
  9 10  1  0  0  0  0
 10 11  1  0  0  0  0
 10 12  2  0  0  0  0
 13 14  1  0  0  0  0
 16 22  1  0  0  0  0
 16 18  1  0  0  0  0
 16 17  1  1  0  0  0
 18 20  1  0  0  0  0
 18 19  1  6  0  0  0
 20 24  1  6  0  0  0
 20 21  1  0  0  0  0
 21 25  1  6  0  0  0
 21 23  1  0  0  0  0
 22 15  1  6  0  0  0
 22 23  1  0  0  0  0
 25 26  1  0  0  0  0
M  END
>  <MODEL>
      14

>  <COMPND>
    UNNAMED

>  <AUTHOR>
    GENERATED BY OPEN BABEL 2.4.90

>  <MASTER>
        0    0    0    0    0    0    0    0   26    0   26    0

