__5c38_A_rec_3v0m_bhe_lig_min.pdb
 OpenBabel10171923513D

 30 31  0  0  1  0  0  0  0  0999 V2000
   17.6590  -10.9780    6.0720 C   0  0  2  0  0  0  0  0  0  0  0  0
   19.0010  -11.1610    5.7470 O   0  0  0  0  0  0  0  0  0  0  0  0
   19.5820  -12.2350    6.4820 C   0  0  1  0  0  0  0  0  0  0  0  0
   18.8790  -13.5670    6.1950 C   0  0  2  0  0  0  0  0  0  0  0  0
   19.0270  -13.9140    4.8060 O   0  0  0  0  0  0  0  0  0  0  0  0
   17.4480  -13.3680    6.6090 C   0  0  2  0  0  0  0  0  0  0  0  0
   16.7300  -14.5980    6.3350 O   0  0  0  0  0  0  0  0  0  0  0  0
   16.8590  -12.2300    5.7900 C   0  0  1  0  0  0  0  0  0  0  0  0
   21.7600  -11.2970    6.9350 O   0  0  0  0  0  0  0  0  0  0  0  0
   21.0610  -12.2930    6.1560 C   0  0  0  0  0  0  0  0  0  0  0  0
   17.1430   -9.8940    5.3000 O   0  0  0  0  0  0  0  0  0  0  0  0
   17.9970   -8.7360    5.3060 C   0  0  0  0  0  0  0  0  0  0  0  0
   17.4340   -7.7330    4.2860 C   0  0  0  0  0  0  0  0  0  0  0  0
   18.0490   -6.3230    4.4670 C   0  0  0  0  0  0  0  0  0  0  0  0
   19.5700   -6.3240    4.6840 C   0  0  0  0  0  0  0  0  0  0  0  0
   19.9100   -5.0870    5.5480 C   0  0  0  0  0  0  0  0  0  0  0  0
   21.4250   -4.9040    5.7620 C   0  0  0  0  0  0  0  0  0  0  0  0
   22.1080   -4.2030    4.5980 C   0  0  0  0  0  0  0  0  0  0  0  0
   21.2410   -3.0250    4.1670 C   0  0  0  0  0  0  0  0  0  0  0  0
   15.4880  -11.9930    6.1550 O   0  0  0  0  0  0  0  0  0  0  0  0
   14.4840  -12.5780    5.3550 C   0  0  1  0  0  0  0  0  0  0  0  0
   13.1880  -12.6050    6.1120 C   0  0  1  0  0  0  0  0  0  0  0  0
   13.3160  -13.3840    7.3320 O   0  0  0  0  0  0  0  0  0  0  0  0
   12.7890  -11.1940    6.5280 C   0  0  2  0  0  0  0  0  0  0  0  0
   11.4870  -11.2880    7.1590 O   0  0  0  0  0  0  0  0  0  0  0  0
   12.6400  -10.3030    5.3320 C   0  0  2  0  0  0  0  0  0  0  0  0
   11.6130  -10.7420    4.4290 O   0  0  0  0  0  0  0  0  0  0  0  0
   14.0050  -10.2920    4.6400 C   0  0  1  0  0  0  0  0  0  0  0  0
   14.3770  -11.6300    4.2440 O   0  0  0  0  0  0  0  0  0  0  0  0
   13.9400   -9.4030    3.3960 C   0  0  0  0  0  0  0  0  0  0  0  0
  1 11  1  6  0  0  0
  1  2  1  0  0  0  0
  1  8  1  0  0  0  0
  2  3  1  0  0  0  0
  3 10  1  6  0  0  0
  3  4  1  0  0  0  0
  4  5  1  6  0  0  0
  4  6  1  0  0  0  0
  6  8  1  0  0  0  0
  6  7  1  6  0  0  0
  8 20  1  1  0  0  0
  9 10  1  0  0  0  0
 11 12  1  0  0  0  0
 12 13  1  0  0  0  0
 13 14  1  0  0  0  0
 14 15  1  0  0  0  0
 15 16  1  0  0  0  0
 16 17  1  0  0  0  0
 17 18  1  0  0  0  0
 18 19  1  0  0  0  0
 21 20  1  1  0  0  0
 21 29  1  0  0  0  0
 21 22  1  0  0  0  0
 22 24  1  0  0  0  0
 22 23  1  1  0  0  0
 24 26  1  0  0  0  0
 24 25  1  6  0  0  0
 26 27  1  6  0  0  0
 26 28  1  0  0  0  0
 28 30  1  6  0  0  0
 28 29  1  0  0  0  0
M  END
>  <COMPND>
    UNNAMED

>  <AUTHOR>
    GENERATED BY OPEN BABEL 2.4.90

>  <MASTER>
        0    0    0    0    0    0    0    0   30    0   30    0

