__5c38_A_rec_5c4e_4ya_lig_min.pdb
 OpenBabel10181908183D

 28 29  0  0  1  0  0  0  0  0999 V2000
   17.5990  -11.1230    6.1460 C   0  0  2  0  0  0  0  0  0  0  0  0
   18.9440  -11.3570    5.7450 O   0  0  0  0  0  0  0  0  0  0  0  0
   19.5500  -12.4010    6.5000 C   0  0  1  0  0  0  0  0  0  0  0  0
   18.8520  -13.7330    6.1420 C   0  0  2  0  0  0  0  0  0  0  0  0
   18.9420  -14.0060    4.6980 O   0  0  0  0  0  0  0  0  0  0  0  0
   17.3360  -13.6320    6.5030 C   0  0  2  0  0  0  0  0  0  0  0  0
   16.6430  -14.8100    6.0400 O   0  0  0  0  0  0  0  0  0  0  0  0
   16.7110  -12.3620    5.8530 C   0  0  1  0  0  0  0  0  0  0  0  0
   21.7050  -11.4160    6.8420 O   0  0  0  0  0  0  0  0  0  0  0  0
   21.0380  -12.4640    6.1240 C   0  0  0  0  0  0  0  0  0  0  0  0
   17.0870  -10.0560    5.4020 O   0  0  0  0  0  0  0  0  0  0  0  0
   17.7880   -8.8230    5.7640 C   0  0  0  0  0  0  0  0  0  0  0  0
   16.9170   -7.8320    6.5090 C   0  0  0  0  0  0  0  0  0  0  0  0
   15.8030   -8.4980    7.2990 C   0  0  0  0  0  0  0  0  0  0  0  0
   15.0130   -7.5240    8.1950 C   0  0  0  0  0  0  0  0  0  0  0  0
   12.6850   -6.8510    8.9930 C   0  0  0  0  0  0  0  0  0  0  0  0
   13.5290   -7.8750    8.2030 C   0  0  0  0  0  0  0  0  0  0  0  0
   15.3530  -12.1520    6.3570 O   0  0  0  0  0  0  0  0  0  0  0  0
   14.3260  -12.5430    5.4650 C   0  0  1  0  0  0  0  0  0  0  0  0
   13.0400  -12.6150    6.2880 C   0  0  1  0  0  0  0  0  0  0  0  0
   13.2860  -13.3770    7.4820 O   0  0  0  0  0  0  0  0  0  0  0  0
   12.6550  -11.1730    6.6920 C   0  0  2  0  0  0  0  0  0  0  0  0
   11.3770  -11.2160    7.3720 O   0  0  0  0  0  0  0  0  0  0  0  0
   12.5470  -10.2890    5.4680 C   0  0  2  0  0  0  0  0  0  0  0  0
   11.4840  -10.7360    4.6090 O   0  0  0  0  0  0  0  0  0  0  0  0
   13.8660  -10.2380    4.6880 C   0  0  1  0  0  0  0  0  0  0  0  0
   14.2200  -11.6240    4.3910 O   0  0  0  0  0  0  0  0  0  0  0  0
   13.8540   -9.4830    3.3750 C   0  0  0  0  0  0  0  0  0  0  0  0
  1 11  1  6  0  0  0
  1  2  1  0  0  0  0
  1  8  1  0  0  0  0
  2  3  1  0  0  0  0
  3  4  1  0  0  0  0
  3 10  1  6  0  0  0
  4  5  1  6  0  0  0
  4  6  1  0  0  0  0
  6  8  1  0  0  0  0
  6  7  1  6  0  0  0
  8 18  1  1  0  0  0
  9 10  1  0  0  0  0
 11 12  1  0  0  0  0
 12 13  1  0  0  0  0
 13 14  1  0  0  0  0
 14 15  1  0  0  0  0
 15 17  1  0  0  0  0
 16 17  1  0  0  0  0
 19 18  1  1  0  0  0
 19 27  1  0  0  0  0
 19 20  1  0  0  0  0
 20 22  1  0  0  0  0
 20 21  1  1  0  0  0
 22 24  1  0  0  0  0
 22 23  1  6  0  0  0
 24 25  1  6  0  0  0
 24 26  1  0  0  0  0
 26 28  1  6  0  0  0
 26 27  1  0  0  0  0
M  END
>  <COMPND>
    UNNAMED

>  <AUTHOR>
    GENERATED BY OPEN BABEL 2.4.90

>  <MASTER>
        0    0    0    0    0    0    0    0   28    0   28    0

