__5c38_A_rec_4y64_bhe_lig_docked.pdb
 OpenBabel10171907103D

 36 37  0  0  1  0  0  0  0  0999 V2000
   17.6290  -10.9920    6.2130 C   0  0  2  0  0  0  0  0  0  0  0  0
   18.9610  -11.2390    5.8220 O   0  0  0  0  0  0  0  0  0  0  0  0
   19.5870  -12.3060    6.5160 C   0  0  1  0  0  0  0  0  0  0  0  0
   18.8740  -13.5890    6.2060 C   0  0  2  0  0  0  0  0  0  0  0  0
   18.9800  -13.9270    4.7730 O   0  0  0  0  0  0  0  0  0  0  0  0
   17.4220  -13.4210    6.6120 C   0  0  2  0  0  0  0  0  0  0  0  0
   16.6760  -14.5900    6.3080 O   0  0  0  0  0  0  0  0  0  0  0  0
   16.8120  -12.2300    5.8800 C   0  0  1  0  0  0  0  0  0  0  0  0
   18.5840  -13.2180    4.2430 H   0  0  0  0  0  0  0  0  0  0  0  0
   16.7020  -14.7510    5.3520 H   0  0  0  0  0  0  0  0  0  0  0  0
   21.7610  -11.4420    6.8120 O   0  0  0  0  0  0  0  0  0  0  0  0
   21.0400  -12.4460    6.1060 C   0  0  0  0  0  0  0  0  0  0  0  0
   22.7010  -11.4940    6.5790 H   0  0  0  0  0  0  0  0  0  0  0  0
   17.1500   -9.8680    5.4660 O   0  0  0  0  0  0  0  0  0  0  0  0
   18.1000   -8.7700    5.3370 C   0  0  0  0  0  0  0  0  0  0  0  0
   17.2470   -7.5850    5.1280 C   0  0  0  0  0  0  0  0  0  0  0  0
   17.8370   -6.6270    4.0650 C   0  0  0  0  0  0  0  0  0  0  0  0
   17.4880   -5.1680    4.3870 C   0  0  0  0  0  0  0  0  0  0  0  0
   17.9120   -4.7970    5.8190 C   0  0  0  0  0  0  0  0  0  0  0  0
   19.2250   -3.9790    5.8410 C   0  0  0  0  0  0  0  0  0  0  0  0
   20.3650   -4.9080    6.1890 C   0  0  0  0  0  0  0  0  0  0  0  0
   21.1810   -4.9380    4.9210 C   0  0  0  0  0  0  0  0  0  0  0  0
   15.4840  -12.0580    6.3540 O   0  0  0  0  0  0  0  0  0  0  0  0
   14.4810  -12.5030    5.4570 C   0  0  1  0  0  0  0  0  0  0  0  0
   13.1330  -12.5920    6.1920 C   0  0  1  0  0  0  0  0  0  0  0  0
   13.3160  -13.3200    7.3610 O   0  0  0  0  0  0  0  0  0  0  0  0
   12.6700  -11.2030    6.5850 C   0  0  2  0  0  0  0  0  0  0  0  0
   11.3750  -11.2430    7.1810 O   0  0  0  0  0  0  0  0  0  0  0  0
   12.6110  -10.3180    5.3540 C   0  0  2  0  0  0  0  0  0  0  0  0
   11.6160  -10.7980    4.4710 O   0  0  0  0  0  0  0  0  0  0  0  0
   13.9930  -10.2880    4.6970 C   0  0  1  0  0  0  0  0  0  0  0  0
   14.3990  -11.6190    4.3380 O   0  0  0  0  0  0  0  0  0  0  0  0
   14.0270   -9.4120    3.4490 C   0  0  0  0  0  0  0  0  0  0  0  0
   13.9740  -12.8760    7.9190 H   0  0  0  0  0  0  0  0  0  0  0  0
   10.7360  -11.5980    6.5430 H   0  0  0  0  0  0  0  0  0  0  0  0
   11.8290  -11.7080    4.2090 H   0  0  0  0  0  0  0  0  0  0  0  0
  1 14  1  6  0  0  0
  1  2  1  0  0  0  0
  1  8  1  0  0  0  0
  2  3  1  0  0  0  0
  3 12  1  6  0  0  0
  3  4  1  0  0  0  0
  4  5  1  6  0  0  0
  4  6  1  0  0  0  0
  5  9  1  0  0  0  0
  6  8  1  0  0  0  0
  6  7  1  6  0  0  0
  7 10  1  0  0  0  0
  8 23  1  1  0  0  0
 11 12  1  0  0  0  0
 11 13  1  0  0  0  0
 14 15  1  0  0  0  0
 15 16  1  0  0  0  0
 16 17  1  0  0  0  0
 17 18  1  0  0  0  0
 18 19  1  0  0  0  0
 19 20  1  0  0  0  0
 20 21  1  0  0  0  0
 21 22  1  0  0  0  0
 24 23  1  1  0  0  0
 24 32  1  0  0  0  0
 24 25  1  0  0  0  0
 25 27  1  0  0  0  0
 25 26  1  1  0  0  0
 26 34  1  0  0  0  0
 27 29  1  0  0  0  0
 27 28  1  6  0  0  0
 28 35  1  0  0  0  0
 29 30  1  6  0  0  0
 29 31  1  0  0  0  0
 30 36  1  0  0  0  0
 31 33  1  6  0  0  0
 31 32  1  0  0  0  0
M  END
>  <MODEL>
       8

>  <COMPND>
    UNNAMED

>  <AUTHOR>
    GENERATED BY OPEN BABEL 2.4.90

>  <MASTER>
        0    0    0    0    0    0    0    0   36    0   36    0

