__5c38_A_rec_3v0q_bhe_lig_docked.pdb
 OpenBabel10171907023D

 36 37  0  0  1  0  0  0  0  0999 V2000
   17.6690  -10.6950    6.0700 C   0  0  2  0  0  0  0  0  0  0  0  0
   19.0370  -10.8000    5.7800 O   0  0  0  0  0  0  0  0  0  0  0  0
   19.6910  -11.7550    6.6220 C   0  0  1  0  0  0  0  0  0  0  0  0
   19.0670  -13.1400    6.4190 C   0  0  2  0  0  0  0  0  0  0  0  0
   19.2210  -13.4870    5.0640 O   0  0  0  0  0  0  0  0  0  0  0  0
   17.6000  -13.0340    6.7820 C   0  0  2  0  0  0  0  0  0  0  0  0
   16.9890  -14.3320    6.5270 O   0  0  0  0  0  0  0  0  0  0  0  0
   16.9560  -12.0150    5.8770 C   0  0  1  0  0  0  0  0  0  0  0  0
   18.8010  -12.8120    4.5080 H   0  0  0  0  0  0  0  0  0  0  0  0
   17.1140  -14.5700    5.5950 H   0  0  0  0  0  0  0  0  0  0  0  0
   21.6370  -13.0570    6.0540 O   0  0  0  0  0  0  0  0  0  0  0  0
   21.1840  -11.7060    6.2770 C   0  0  0  0  0  0  0  0  0  0  0  0
   22.5810  -13.0500    5.8340 H   0  0  0  0  0  0  0  0  0  0  0  0
   17.0720   -9.7190    5.1870 O   0  0  0  0  0  0  0  0  0  0  0  0
   17.0340   -8.3960    5.7570 C   0  0  0  0  0  0  0  0  0  0  0  0
   18.2110   -7.5960    5.1850 C   0  0  0  0  0  0  0  0  0  0  0  0
   17.9590   -6.0710    5.2000 C   0  0  0  0  0  0  0  0  0  0  0  0
   18.8370   -5.2130    4.2740 C   0  0  0  0  0  0  0  0  0  0  0  0
   20.2840   -5.4360    4.7590 C   0  0  0  0  0  0  0  0  0  0  0  0
   20.5890   -4.9300    6.1770 C   0  0  0  0  0  0  0  0  0  0  0  0
   21.3580   -5.9460    7.0160 C   0  0  0  0  0  0  0  0  0  0  0  0
   20.4530   -6.4240    8.1570 C   0  0  0  0  0  0  0  0  0  0  0  0
   15.5630  -11.8750    6.1940 O   0  0  0  0  0  0  0  0  0  0  0  0
   14.5970  -12.5220    5.4100 C   0  0  1  0  0  0  0  0  0  0  0  0
   13.2750  -12.5620    6.1710 C   0  0  1  0  0  0  0  0  0  0  0  0
   13.4010  -13.2780    7.4230 O   0  0  0  0  0  0  0  0  0  0  0  0
   12.8100  -11.1770    6.5250 C   0  0  2  0  0  0  0  0  0  0  0  0
   11.5010  -11.3220    7.1150 O   0  0  0  0  0  0  0  0  0  0  0  0
   12.6570  -10.3470    5.2840 C   0  0  2  0  0  0  0  0  0  0  0  0
   11.6620  -10.8970    4.4150 O   0  0  0  0  0  0  0  0  0  0  0  0
   14.0280  -10.2900    4.5950 C   0  0  1  0  0  0  0  0  0  0  0  0
   14.4630  -11.6460    4.2550 O   0  0  0  0  0  0  0  0  0  0  0  0
   13.9480   -9.4320    3.3280 C   0  0  0  0  0  0  0  0  0  0  0  0
   14.0350  -12.8190    7.9950 H   0  0  0  0  0  0  0  0  0  0  0  0
   10.9060  -11.7510    6.4800 H   0  0  0  0  0  0  0  0  0  0  0  0
   11.9190  -11.7970    4.1580 H   0  0  0  0  0  0  0  0  0  0  0  0
  1 14  1  6  0  0  0
  1  2  1  0  0  0  0
  1  8  1  0  0  0  0
  2  3  1  0  0  0  0
  3 12  1  6  0  0  0
  3  4  1  0  0  0  0
  4  5  1  6  0  0  0
  4  6  1  0  0  0  0
  5  9  1  0  0  0  0
  6  8  1  0  0  0  0
  6  7  1  6  0  0  0
  7 10  1  0  0  0  0
  8 23  1  1  0  0  0
 11 12  1  0  0  0  0
 11 13  1  0  0  0  0
 14 15  1  0  0  0  0
 15 16  1  0  0  0  0
 16 17  1  0  0  0  0
 17 18  1  0  0  0  0
 18 19  1  0  0  0  0
 19 20  1  0  0  0  0
 20 21  1  0  0  0  0
 21 22  1  0  0  0  0
 24 23  1  1  0  0  0
 24 32  1  0  0  0  0
 24 25  1  0  0  0  0
 25 27  1  0  0  0  0
 25 26  1  1  0  0  0
 26 34  1  0  0  0  0
 27 29  1  0  0  0  0
 27 28  1  6  0  0  0
 28 35  1  0  0  0  0
 29 30  1  6  0  0  0
 29 31  1  0  0  0  0
 30 36  1  0  0  0  0
 31 33  1  6  0  0  0
 31 32  1  0  0  0  0
M  END
>  <MODEL>
       8

>  <COMPND>
    UNNAMED

>  <AUTHOR>
    GENERATED BY OPEN BABEL 2.4.90

>  <MASTER>
        0    0    0    0    0    0    0    0   36    0   36    0

