__5c38_A_rec_4kc2_bhe_lig_min.pdb
 OpenBabel10171922543D

 30 31  0  0  1  0  0  0  0  0999 V2000
   17.5760  -10.9830    6.1420 C   0  0  2  0  0  0  0  0  0  0  0  0
   18.9630  -11.1550    5.7560 O   0  0  0  0  0  0  0  0  0  0  0  0
   19.6240  -12.1980    6.4890 C   0  0  1  0  0  0  0  0  0  0  0  0
   18.9510  -13.5570    6.2190 C   0  0  2  0  0  0  0  0  0  0  0  0
   19.0370  -13.9040    4.8250 O   0  0  0  0  0  0  0  0  0  0  0  0
   17.4640  -13.4580    6.6210 C   0  0  2  0  0  0  0  0  0  0  0  0
   16.7800  -14.6780    6.2870 O   0  0  0  0  0  0  0  0  0  0  0  0
   16.8000  -12.2800    5.8910 C   0  0  1  0  0  0  0  0  0  0  0  0
   21.8410  -11.3070    6.9080 O   0  0  0  0  0  0  0  0  0  0  0  0
   21.0990  -12.1970    6.0580 C   0  0  0  0  0  0  0  0  0  0  0  0
   17.0370   -9.9570    5.3210 O   0  0  0  0  0  0  0  0  0  0  0  0
   17.8910   -8.8020    5.3060 C   0  0  0  0  0  0  0  0  0  0  0  0
   17.3920   -7.8420    4.2240 C   0  0  0  0  0  0  0  0  0  0  0  0
   17.9170   -6.4280    4.4960 C   0  0  0  0  0  0  0  0  0  0  0  0
   19.4200   -6.4750    4.7770 C   0  0  0  0  0  0  0  0  0  0  0  0
   20.0070   -5.0710    4.5860 C   0  0  0  0  0  0  0  0  0  0  0  0
   21.3050   -4.9430    5.3890 C   0  0  0  0  0  0  0  0  0  0  0  0
   22.3140   -4.1200    4.5820 C   0  0  0  0  0  0  0  0  0  0  0  0
   23.6300   -3.9990    5.3510 C   0  0  0  0  0  0  0  0  0  0  0  0
   15.4450  -12.1000    6.3470 O   0  0  0  0  0  0  0  0  0  0  0  0
   14.4750  -12.5570    5.3880 C   0  0  1  0  0  0  0  0  0  0  0  0
   13.1350  -12.6880    6.1030 C   0  0  1  0  0  0  0  0  0  0  0  0
   13.3040  -13.5430    7.2530 O   0  0  0  0  0  0  0  0  0  0  0  0
   12.6780  -11.2750    6.5340 C   0  0  2  0  0  0  0  0  0  0  0  0
   11.4090  -11.3260    7.2110 O   0  0  0  0  0  0  0  0  0  0  0  0
   12.5890  -10.3310    5.3150 C   0  0  2  0  0  0  0  0  0  0  0  0
   11.5400  -10.7620    4.4260 O   0  0  0  0  0  0  0  0  0  0  0  0
   13.9410  -10.3120    4.5850 C   0  0  1  0  0  0  0  0  0  0  0  0
   14.3430  -11.6620    4.2450 O   0  0  0  0  0  0  0  0  0  0  0  0
   13.8790   -9.4690    3.3120 C   0  0  0  0  0  0  0  0  0  0  0  0
  1 11  1  6  0  0  0
  1  2  1  0  0  0  0
  1  8  1  0  0  0  0
  2  3  1  0  0  0  0
  3 10  1  6  0  0  0
  3  4  1  0  0  0  0
  4  5  1  6  0  0  0
  4  6  1  0  0  0  0
  6  8  1  0  0  0  0
  6  7  1  6  0  0  0
  8 20  1  1  0  0  0
  9 10  1  0  0  0  0
 11 12  1  0  0  0  0
 12 13  1  0  0  0  0
 13 14  1  0  0  0  0
 14 15  1  0  0  0  0
 15 16  1  0  0  0  0
 16 17  1  0  0  0  0
 17 18  1  0  0  0  0
 18 19  1  0  0  0  0
 21 20  1  1  0  0  0
 21 29  1  0  0  0  0
 21 22  1  0  0  0  0
 22 24  1  0  0  0  0
 22 23  1  1  0  0  0
 24 26  1  0  0  0  0
 24 25  1  6  0  0  0
 26 27  1  6  0  0  0
 26 28  1  0  0  0  0
 28 30  1  6  0  0  0
 28 29  1  0  0  0  0
M  END
>  <COMPND>
    UNNAMED

>  <AUTHOR>
    GENERATED BY OPEN BABEL 2.4.90

>  <MASTER>
        0    0    0    0    0    0    0    0   30    0   30    0

