__5c38_A_rec_4y63_bhe_lig_min.pdb
 OpenBabel10171923303D

 30 31  0  0  1  0  0  0  0  0999 V2000
   17.7370  -10.9660    6.1540 C   0  0  2  0  0  0  0  0  0  0  0  0
   19.1010  -11.1930    5.7530 O   0  0  0  0  0  0  0  0  0  0  0  0
   19.7060  -12.2610    6.5000 C   0  0  1  0  0  0  0  0  0  0  0  0
   18.9600  -13.5670    6.2240 C   0  0  2  0  0  0  0  0  0  0  0  0
   19.0140  -13.8860    4.8180 O   0  0  0  0  0  0  0  0  0  0  0  0
   17.5120  -13.3880    6.6340 C   0  0  2  0  0  0  0  0  0  0  0  0
   16.7640  -14.5600    6.3210 O   0  0  0  0  0  0  0  0  0  0  0  0
   16.9260  -12.2210    5.8700 C   0  0  1  0  0  0  0  0  0  0  0  0
   21.8750  -11.4010    6.8130 O   0  0  0  0  0  0  0  0  0  0  0  0
   21.1460  -12.3940    6.0720 C   0  0  0  0  0  0  0  0  0  0  0  0
   17.2380   -9.8580    5.4010 O   0  0  0  0  0  0  0  0  0  0  0  0
   18.1700   -8.7430    5.3040 C   0  0  0  0  0  0  0  0  0  0  0  0
   17.4970   -7.7690    4.3880 C   0  0  0  0  0  0  0  0  0  0  0  0
   18.0430   -6.3350    4.5710 C   0  0  0  0  0  0  0  0  0  0  0  0
   19.5720   -6.3440    4.6550 C   0  0  0  0  0  0  0  0  0  0  0  0
   20.0040   -5.6370    5.9560 C   0  0  0  0  0  0  0  0  0  0  0  0
   21.4080   -5.0070    5.8250 C   0  0  0  0  0  0  0  0  0  0  0  0
   21.4600   -4.1600    4.5590 C   0  0  0  0  0  0  0  0  0  0  0  0
   22.9190   -3.9610    4.2580 C   0  0  0  0  0  0  0  0  0  0  0  0
   15.5870  -12.0420    6.3260 O   0  0  0  0  0  0  0  0  0  0  0  0
   14.6470  -12.4090    5.3250 C   0  0  1  0  0  0  0  0  0  0  0  0
   13.2560  -12.5670    5.9740 C   0  0  1  0  0  0  0  0  0  0  0  0
   13.3220  -13.4150    7.1390 O   0  0  0  0  0  0  0  0  0  0  0  0
   12.7310  -11.1920    6.3630 C   0  0  2  0  0  0  0  0  0  0  0  0
   11.4130  -11.3070    6.9170 O   0  0  0  0  0  0  0  0  0  0  0  0
   12.6840  -10.2680    5.1260 C   0  0  2  0  0  0  0  0  0  0  0  0
   11.6990  -10.7310    4.2120 O   0  0  0  0  0  0  0  0  0  0  0  0
   14.0560  -10.2320    4.4430 C   0  0  1  0  0  0  0  0  0  0  0  0
   14.4750  -11.6190    4.1360 O   0  0  0  0  0  0  0  0  0  0  0  0
   14.0500   -9.4420    3.1390 C   0  0  0  0  0  0  0  0  0  0  0  0
  1 11  1  6  0  0  0
  1  2  1  0  0  0  0
  1  8  1  0  0  0  0
  2  3  1  0  0  0  0
  3 10  1  6  0  0  0
  3  4  1  0  0  0  0
  4  5  1  6  0  0  0
  4  6  1  0  0  0  0
  6  8  1  0  0  0  0
  6  7  1  6  0  0  0
  8 20  1  1  0  0  0
  9 10  1  0  0  0  0
 11 12  1  0  0  0  0
 12 13  1  0  0  0  0
 13 14  1  0  0  0  0
 14 15  1  0  0  0  0
 15 16  1  0  0  0  0
 16 17  1  0  0  0  0
 17 18  1  0  0  0  0
 18 19  1  0  0  0  0
 21 20  1  1  0  0  0
 21 29  1  0  0  0  0
 21 22  1  0  0  0  0
 22 24  1  0  0  0  0
 22 23  1  1  0  0  0
 24 26  1  0  0  0  0
 24 25  1  6  0  0  0
 26 27  1  6  0  0  0
 26 28  1  0  0  0  0
 28 30  1  6  0  0  0
 28 29  1  0  0  0  0
M  END
>  <COMPND>
    UNNAMED

>  <AUTHOR>
    GENERATED BY OPEN BABEL 2.4.90

>  <MASTER>
        0    0    0    0    0    0    0    0   30    0   30    0

