__5c38_A_rec_3v0q_udp_lig_min.pdb
 OpenBabel10171922513D

 25 26  0  0  1  0  0  0  0  0999 V2000
   10.4610  -23.1290    5.9310 C   0  0  1  0  0  0  0  0  0  0  0  0
    9.6030  -22.2250    5.0660 C   0  0  2  0  0  0  0  0  0  0  0  0
    9.6060  -22.7450    3.7510 O   0  0  0  0  0  0  0  0  0  0  0  0
   10.3850  -20.9370    5.0890 C   0  0  1  0  0  0  0  0  0  0  0  0
   11.8120  -21.4530    5.0780 C   0  0  2  0  0  0  0  0  0  0  0  0
   11.7850  -22.6330    5.8620 O   0  0  0  0  0  0  0  0  0  0  0  0
   10.0760  -20.1480    3.9610 O   0  0  0  0  0  0  0  0  0  0  0  0
    9.9660  -23.1790    7.3300 N   0  0  0  0  0  0  0  0  0  0  0  0
    8.9970  -24.1210    7.6240 C   0  0  0  0  0  0  0  0  0  0  0  0
    8.4940  -24.2390    8.9090 N   0  0  0  0  0  0  0  0  0  0  0  0
    8.9660  -23.4130    9.9170 C   0  0  0  0  0  0  0  0  0  0  0  0
    9.9490  -22.4610    9.6210 C   0  0  0  0  0  0  0  0  0  0  0  0
   10.3670  -22.2860    8.2910 C   0  0  0  0  0  0  0  0  0  0  0  0
    8.5690  -24.8480    6.7310 O   0  0  0  0  0  0  0  0  0  0  0  0
    8.5000  -23.5440   11.0570 O   0  0  0  0  0  0  0  0  0  0  0  0
   12.8130  -20.4500    5.6400 C   0  0  0  0  0  0  0  0  0  0  0  0
   12.2680  -19.9270    6.8280 O   0  0  0  0  0  0  0  0  0  0  0  0
   12.1390  -18.3430    6.9420 P   0  0  2  0  0  0  0  0  0  0  0  0
   11.6020  -17.9450    8.2590 O   0  0  0  0  0  0  0  0  0  0  0  0
   11.3240  -17.8660    5.8000 O   0  0  0  0  0  0  0  0  0  0  0  0
   13.6450  -17.8640    6.7630 O   0  0  0  0  0  0  0  0  0  0  0  0
   14.0890  -16.5400    5.9520 P   0  0  0  0  0  0  0  0  0  0  0  0
   13.0160  -15.5170    5.9860 O   0  0  0  0  0  0  0  0  0  0  0  0
   14.4500  -16.8150    4.5380 O   0  0  0  0  0  0  0  0  0  0  0  0
   15.2630  -16.0300    6.6960 O   0  0  0  0  0  0  0  0  0  0  0  0
  1  2  1  0  0  0  0
  1  6  1  0  0  0  0
  1  8  1  1  0  0  0
  2  3  1  6  0  0  0
  2  4  1  0  0  0  0
  4  7  1  6  0  0  0
  4  5  1  0  0  0  0
  5 16  1  1  0  0  0
  5  6  1  0  0  0  0
  8  9  1  0  0  0  0
  8 13  1  0  0  0  0
  9 14  2  0  0  0  0
  9 10  1  0  0  0  0
 10 11  1  0  0  0  0
 11 12  1  0  0  0  0
 11 15  2  0  0  0  0
 12 13  2  0  0  0  0
 16 17  1  0  0  0  0
 17 18  1  0  0  0  0
 18 20  2  6  0  0  0
 18 21  1  0  0  0  0
 18 19  1  0  0  0  0
 21 22  1  0  0  0  0
 22 24  2  0  0  0  0
 22 25  1  0  0  0  0
 22 23  1  0  0  0  0
M  END
>  <COMPND>
    UNNAMED

>  <AUTHOR>
    GENERATED BY OPEN BABEL 2.4.90

>  <MASTER>
        0    0    0    0    0    0    0    0   25    0   25    0

