__5c38_A_rec_5c1g_da8_lig_min.pdb
 OpenBabel10181910053D

 27 28  0  0  1  0  0  0  0  0999 V2000
   17.8480  -10.9440    6.1230 C   0  0  2  0  0  0  0  0  0  0  0  0
   19.2190  -11.1860    5.7550 O   0  0  0  0  0  0  0  0  0  0  0  0
   19.6850  -12.3310    6.4840 C   0  0  1  0  0  0  0  0  0  0  0  0
   18.8700  -13.5930    6.1620 C   0  0  2  0  0  0  0  0  0  0  0  0
   18.9750  -13.9220    4.7870 O   0  0  0  0  0  0  0  0  0  0  0  0
   17.4210  -13.2780    6.5450 C   0  0  0  0  0  0  0  0  0  0  0  0
   16.9320  -12.0640    5.7080 C   0  0  1  0  0  0  0  0  0  0  0  0
   21.1720  -12.4500    6.1410 C   0  0  0  0  0  0  0  0  0  0  0  0
   21.8910  -11.4120    6.8120 O   0  0  0  0  0  0  0  0  0  0  0  0
   17.2880   -9.8270    5.4650 O   0  0  0  0  0  0  0  0  0  0  0  0
   18.3000   -8.8460    5.2800 C   0  0  0  0  0  0  0  0  0  0  0  0
   17.5310   -7.5360    5.1900 C   0  0  0  0  0  0  0  0  0  0  0  0
   17.1970   -7.1790    6.6480 C   0  0  0  0  0  0  0  0  0  0  0  0
   17.2170   -5.6920    6.9830 C   0  0  0  0  0  0  0  0  0  0  0  0
   15.9000   -3.8990    8.1990 C   0  0  0  0  0  0  0  0  0  0  0  0
   16.1040   -5.4010    7.9910 C   0  0  0  0  0  0  0  0  0  0  0  0
   15.5820  -11.8180    6.1170 O   0  0  0  0  0  0  0  0  0  0  0  0
   14.6070  -12.4210    5.2660 C   0  0  2  0  0  0  0  0  0  0  0  0
   14.4940  -11.5510    4.1090 O   0  0  0  0  0  0  0  0  0  0  0  0
   14.0760  -10.2090    4.4600 C   0  0  1  0  0  0  0  0  0  0  0  0
   14.0110   -9.3570    3.1910 C   0  0  0  0  0  0  0  0  0  0  0  0
   12.7050  -10.2460    5.1400 C   0  0  1  0  0  0  0  0  0  0  0  0
   11.7020  -10.7540    4.2610 O   0  0  0  0  0  0  0  0  0  0  0  0
   12.8260  -11.0970    6.3910 C   0  0  1  0  0  0  0  0  0  0  0  0
   11.5580  -11.1730    7.0410 O   0  0  0  0  0  0  0  0  0  0  0  0
   13.2630  -12.4980    5.9890 C   0  0  2  0  0  0  0  0  0  0  0  0
   13.3750  -13.2800    7.1710 O   0  0  0  0  0  0  0  0  0  0  0  0
  1  7  1  0  0  0  0
  1 10  1  6  0  0  0
  1  2  1  0  0  0  0
  2  3  1  0  0  0  0
  3  4  1  0  0  0  0
  3  8  1  6  0  0  0
  4  5  1  6  0  0  0
  4  6  1  0  0  0  0
  6  7  1  0  0  0  0
  7 17  1  1  0  0  0
  8  9  1  0  0  0  0
 10 11  1  0  0  0  0
 11 12  1  0  0  0  0
 12 13  1  0  0  0  0
 13 14  1  0  0  0  0
 14 16  1  0  0  0  0
 15 16  1  0  0  0  0
 18 17  1  1  0  0  0
 18 19  1  0  0  0  0
 18 26  1  0  0  0  0
 19 20  1  0  0  0  0
 20 21  1  6  0  0  0
 20 22  1  0  0  0  0
 22 23  1  6  0  0  0
 22 24  1  0  0  0  0
 24 26  1  0  0  0  0
 24 25  1  6  0  0  0
 26 27  1  1  0  0  0
M  END
>  <COMPND>
    UNNAMED

>  <AUTHOR>
    GENERATED BY OPEN BABEL 2.4.90

>  <MASTER>
        0    0    0    0    0    0    0    0   27    0   27    0

