__5c38_A_rec_4kc4_bhe_lig_min.pdb
 OpenBabel10181909593D

 30 31  0  0  1  0  0  0  0  0999 V2000
   17.5860  -11.0010    6.1060 C   0  0  2  0  0  0  0  0  0  0  0  0
   18.9590  -11.1850    5.7130 O   0  0  0  0  0  0  0  0  0  0  0  0
   19.6070  -12.2150    6.4800 C   0  0  1  0  0  0  0  0  0  0  0  0
   18.9270  -13.5750    6.1960 C   0  0  2  0  0  0  0  0  0  0  0  0
   19.0130  -13.9200    4.8020 O   0  0  0  0  0  0  0  0  0  0  0  0
   17.4460  -13.4570    6.5840 C   0  0  2  0  0  0  0  0  0  0  0  0
   16.7400  -14.6700    6.2750 O   0  0  0  0  0  0  0  0  0  0  0  0
   16.7940  -12.2800    5.8400 C   0  0  1  0  0  0  0  0  0  0  0  0
   21.8220  -11.2780    6.9430 O   0  0  0  0  0  0  0  0  0  0  0  0
   21.1120  -12.2470    6.1530 C   0  0  0  0  0  0  0  0  0  0  0  0
   17.0450   -9.9310    5.3320 O   0  0  0  0  0  0  0  0  0  0  0  0
   17.9050   -8.7900    5.3090 C   0  0  0  0  0  0  0  0  0  0  0  0
   17.3880   -7.8510    4.2200 C   0  0  0  0  0  0  0  0  0  0  0  0
   17.8830   -6.4280    4.4740 C   0  0  0  0  0  0  0  0  0  0  0  0
   19.3750   -6.4600    4.7760 C   0  0  0  0  0  0  0  0  0  0  0  0
   19.9830   -5.0640    4.5600 C   0  0  0  0  0  0  0  0  0  0  0  0
   21.2690   -4.9660    5.3770 C   0  0  0  0  0  0  0  0  0  0  0  0
   22.2970   -4.1270    4.6100 C   0  0  0  0  0  0  0  0  0  0  0  0
   23.5870   -4.0260    5.4250 C   0  0  0  0  0  0  0  0  0  0  0  0
   15.4550  -12.0960    6.3050 O   0  0  0  0  0  0  0  0  0  0  0  0
   14.4500  -12.5520    5.3550 C   0  0  1  0  0  0  0  0  0  0  0  0
   13.1120  -12.6640    6.0800 C   0  0  1  0  0  0  0  0  0  0  0  0
   13.2740  -13.5240    7.2210 O   0  0  0  0  0  0  0  0  0  0  0  0
   12.6880  -11.2410    6.5240 C   0  0  2  0  0  0  0  0  0  0  0  0
   11.4310  -11.2430    7.1810 O   0  0  0  0  0  0  0  0  0  0  0  0
   12.5860  -10.3250    5.3090 C   0  0  2  0  0  0  0  0  0  0  0  0
   11.5430  -10.7980    4.4330 O   0  0  0  0  0  0  0  0  0  0  0  0
   13.9380  -10.3090    4.6020 C   0  0  1  0  0  0  0  0  0  0  0  0
   14.3220  -11.6680    4.2160 O   0  0  0  0  0  0  0  0  0  0  0  0
   13.9210   -9.3940    3.3770 C   0  0  0  0  0  0  0  0  0  0  0  0
  1 11  1  6  0  0  0
  1  2  1  0  0  0  0
  1  8  1  0  0  0  0
  2  3  1  0  0  0  0
  3 10  1  6  0  0  0
  3  4  1  0  0  0  0
  4  5  1  6  0  0  0
  4  6  1  0  0  0  0
  6  8  1  0  0  0  0
  6  7  1  6  0  0  0
  8 20  1  1  0  0  0
  9 10  1  0  0  0  0
 11 12  1  0  0  0  0
 12 13  1  0  0  0  0
 13 14  1  0  0  0  0
 14 15  1  0  0  0  0
 15 16  1  0  0  0  0
 16 17  1  0  0  0  0
 17 18  1  0  0  0  0
 18 19  1  0  0  0  0
 21 20  1  1  0  0  0
 21 29  1  0  0  0  0
 21 22  1  0  0  0  0
 22 24  1  0  0  0  0
 22 23  1  1  0  0  0
 24 26  1  0  0  0  0
 24 25  1  6  0  0  0
 26 27  1  6  0  0  0
 26 28  1  0  0  0  0
 28 30  1  6  0  0  0
 28 29  1  0  0  0  0
M  END
>  <COMPND>
    UNNAMED

>  <AUTHOR>
    GENERATED BY OPEN BABEL 2.4.90

>  <MASTER>
        0    0    0    0    0    0    0    0   30    0   30    0

