__5c3a_A_rec_5c1l_gdu_lig_docked.pdb
 OpenBabel10181917023D

 36 38  0  0  1  0  0  0  0  0999 V2000
   12.1530  -18.1480    6.7690 P   0  0  1  0  0  0  0  0  0  0  0  0
   10.7440  -17.6270    6.7900 O   0  0  0  0  0  0  0  0  0  0  0  0
   12.5820  -18.9890    7.9340 O   0  0  0  0  0  0  0  0  0  0  0  0
   12.4020  -19.0410    5.4680 O   0  0  0  0  0  0  0  0  0  0  0  0
   12.8930  -20.3720    5.5640 C   0  0  0  0  0  0  0  0  0  0  0  0
   10.5980  -23.0830    6.0020 C   0  0  1  0  0  0  0  0  0  0  0  0
    9.7160  -22.2620    5.0850 C   0  0  2  0  0  0  0  0  0  0  0  0
    9.6890  -22.7960    3.7540 O   0  0  0  0  0  0  0  0  0  0  0  0
   10.4020  -20.9240    5.0800 C   0  0  1  0  0  0  0  0  0  0  0  0
   11.8580  -21.3670    5.0470 C   0  0  2  0  0  0  0  0  0  0  0  0
   11.9060  -22.5100    5.8900 O   0  0  0  0  0  0  0  0  0  0  0  0
    9.9910  -20.1400    3.9620 O   0  0  0  0  0  0  0  0  0  0  0  0
   10.1440  -23.0400    7.3970 N   0  0  0  0  0  0  0  0  0  0  0  0
    9.0440  -23.8400    7.7310 C   0  0  0  0  0  0  0  0  0  0  0  0
    8.5930  -23.8380    8.9980 N   0  0  0  0  0  0  0  0  0  0  0  0
    9.1880  -23.1250    9.9750 C   0  0  0  0  0  0  0  0  0  0  0  0
   10.2800  -22.3320    9.6770 C   0  0  0  0  0  0  0  0  0  0  0  0
   10.7420  -22.3120    8.3700 C   0  0  0  0  0  0  0  0  0  0  0  0
    8.4990  -24.5050    6.8320 O   0  0  0  0  0  0  0  0  0  0  0  0
    8.7400  -23.1570   11.1570 O   0  0  0  0  0  0  0  0  0  0  0  0
   13.2360  -16.9640    6.6650 O   0  0  0  0  0  0  0  0  0  0  0  0
   13.6730  -15.9450    5.4730 P   0  0  1  0  0  0  0  0  0  0  0  0
   12.5060  -15.6470    4.5400 O   0  0  0  0  0  0  0  0  0  0  0  0
   14.3270  -14.7490    6.1090 O   0  0  0  0  0  0  0  0  0  0  0  0
   14.7440  -16.9840    4.9150 O   0  0  0  0  0  0  0  0  0  0  0  0
   16.1770  -16.8250    5.2310 C   0  0  2  0  0  0  0  0  0  0  0  0
   17.1340  -17.7760    4.5110 C   0  0  1  0  0  0  0  0  0  0  0  0
   17.0630  -19.2100    5.0380 C   0  0  2  0  0  0  0  0  0  0  0  0
   17.2830  -19.2300    6.5430 C   0  0  2  0  0  0  0  0  0  0  0  0
   16.3490  -18.2320    7.2110 C   0  0  2  0  0  0  0  0  0  0  0  0
   16.8590  -17.7390    3.0960 O   0  0  0  0  0  0  0  0  0  0  0  0
   18.0530  -20.0670    4.4340 O   0  0  0  0  0  0  0  0  0  0  0  0
   18.6250  -18.8840    6.8730 O   0  0  0  0  0  0  0  0  0  0  0  0
   16.5120  -16.9210    6.6390 O   0  0  0  0  0  0  0  0  0  0  0  0
   16.6270  -18.1860    8.7060 C   0  0  0  0  0  0  0  0  0  0  0  0
   16.7360  -19.5380    9.1660 O   0  0  0  0  0  0  0  0  0  0  0  0
  1  2  2  1  0  0  0
  1  4  1  0  0  0  0
  1 21  1  0  0  0  0
  1  3  1  0  0  0  0
  4  5  1  0  0  0  0
  6  7  1  0  0  0  0
  6 11  1  0  0  0  0
  6 13  1  1  0  0  0
  7  8  1  6  0  0  0
  7  9  1  0  0  0  0
  9 12  1  6  0  0  0
  9 10  1  0  0  0  0
 10  5  1  1  0  0  0
 10 11  1  0  0  0  0
 13 14  1  0  0  0  0
 13 18  1  0  0  0  0
 14 19  2  0  0  0  0
 14 15  1  0  0  0  0
 15 16  1  0  0  0  0
 16 17  1  0  0  0  0
 16 20  2  0  0  0  0
 17 18  2  0  0  0  0
 21 22  1  0  0  0  0
 22 23  2  6  0  0  0
 22 25  1  0  0  0  0
 22 24  1  0  0  0  0
 26 25  1  1  0  0  0
 26 27  1  0  0  0  0
 26 34  1  0  0  0  0
 27 31  1  6  0  0  0
 27 28  1  0  0  0  0
 28 32  1  6  0  0  0
 28 29  1  0  0  0  0
 29 33  1  6  0  0  0
 29 30  1  0  0  0  0
 30 34  1  0  0  0  0
 30 35  1  1  0  0  0
 35 36  1  0  0  0  0
M  END
>  <MODEL>
       2

>  <COMPND>
    UNNAMED

>  <AUTHOR>
    GENERATED BY OPEN BABEL 2.4.90

>  <MASTER>
        0    0    0    0    0    0    0    0   36    0   36    0

