__5c3a_A_rec_1zj1_nlc_lig_min.pdb
 OpenBabel10171923083D

 26 27  0  0  1  0  0  0  0  0999 V2000
   17.5630   -6.3860    7.5810 C   0  0  2  0  0  0  0  0  0  0  0  0
   16.6270   -5.8250    6.6550 O   0  0  0  0  0  0  0  0  0  0  0  0
   18.6920   -7.0830    6.8160 C   0  0  1  0  0  0  0  0  0  0  0  0
   18.1390   -8.2850    6.0450 C   0  0  1  0  0  0  0  0  0  0  0  0
   19.2210   -9.0070    5.4530 O   0  0  0  0  0  0  0  0  0  0  0  0
   17.3670   -9.2150    6.9840 C   0  0  1  0  0  0  0  0  0  0  0  0
   16.2990   -8.4150    7.7160 C   0  0  2  0  0  0  0  0  0  0  0  0
   16.8980   -7.3270    8.4420 O   0  0  0  0  0  0  0  0  0  0  0  0
   19.2880   -6.1320    5.8680 N   0  0  0  0  0  0  0  0  0  0  0  0
   20.5850   -5.8330    5.8770 C   0  0  0  0  0  0  0  0  0  0  0  0
   21.0180   -4.8150    4.8200 C   0  0  0  0  0  0  0  0  0  0  0  0
   21.4000   -6.3150    6.6630 O   0  0  0  0  0  0  0  0  0  0  0  0
   15.5330   -9.3110    8.6920 C   0  0  0  0  0  0  0  0  0  0  0  0
   16.4230   -9.8110    9.6940 O   0  0  0  0  0  0  0  0  0  0  0  0
   16.7770  -10.2830    6.2290 O   0  0  0  0  0  0  0  0  0  0  0  0
   16.4170  -12.6690    6.1890 C   0  0  2  0  0  0  0  0  0  0  0  0
   15.1400  -12.5320    6.8190 O   0  0  0  0  0  0  0  0  0  0  0  0
   17.0360  -14.0220    6.5500 C   0  0  1  0  0  0  0  0  0  0  0  0
   16.2210  -15.0690    6.0190 O   0  0  0  0  0  0  0  0  0  0  0  0
   18.4450  -14.1200    5.9610 C   0  0  2  0  0  0  0  0  0  0  0  0
   19.2750  -12.9230    6.4320 C   0  0  2  0  0  0  0  0  0  0  0  0
   17.3450  -11.5370    6.6350 C   0  0  1  0  0  0  0  0  0  0  0  0
   18.6370  -11.7010    6.0250 O   0  0  0  0  0  0  0  0  0  0  0  0
   18.3540  -14.1050    4.5350 O   0  0  0  0  0  0  0  0  0  0  0  0
   20.6860  -12.9900    5.8390 C   0  0  0  0  0  0  0  0  0  0  0  0
   21.4980  -11.9660    6.4180 O   0  0  0  0  0  0  0  0  0  0  0  0
  1  3  1  0  0  0  0
  1  2  1  6  0  0  0
  1  8  1  0  0  0  0
  3  9  1  6  0  0  0
  3  4  1  0  0  0  0
  4  5  1  1  0  0  0
  4  6  1  0  0  0  0
  6 15  1  6  0  0  0
  6  7  1  0  0  0  0
  7  8  1  0  0  0  0
  7 13  1  1  0  0  0
  9 10  1  0  0  0  0
 10 11  1  0  0  0  0
 10 12  2  0  0  0  0
 13 14  1  0  0  0  0
 16 22  1  0  0  0  0
 16 18  1  0  0  0  0
 16 17  1  1  0  0  0
 18 20  1  0  0  0  0
 18 19  1  6  0  0  0
 20 24  1  6  0  0  0
 20 21  1  0  0  0  0
 21 25  1  6  0  0  0
 21 23  1  0  0  0  0
 22 15  1  6  0  0  0
 22 23  1  0  0  0  0
 25 26  1  0  0  0  0
M  END
>  <COMPND>
    UNNAMED

>  <AUTHOR>
    GENERATED BY OPEN BABEL 2.4.90

>  <MASTER>
        0    0    0    0    0    0    0    0   26    0   26    0

