__5c3d_A_rec_4y64_48c_lig_min.pdb
 OpenBabel10181910573D

 22 23  0  0  1  0  0  0  0  0999 V2000
   10.5190  -23.0010    5.8840 C   0  0  2  0  0  0  0  0  0  0  0  0
   11.8140  -22.3700    5.8220 O   0  0  0  0  0  0  0  0  0  0  0  0
    9.5930  -22.2040    4.9480 C   0  0  2  0  0  0  0  0  0  0  0  0
    9.6330  -22.7060    3.5820 O   0  0  0  0  0  0  0  0  0  0  0  0
   10.1920  -20.8440    5.0520 C   0  0  2  0  0  0  0  0  0  0  0  0
    9.8710  -20.0750    3.9120 O   0  0  0  0  0  0  0  0  0  0  0  0
   11.6910  -21.0800    5.1220 C   0  0  1  0  0  0  0  0  0  0  0  0
    8.4120  -24.6180    6.5910 O   0  0  0  0  0  0  0  0  0  0  0  0
    8.9400  -23.9710    7.4980 C   0  0  0  0  0  0  0  0  0  0  0  0
    8.4040  -24.1030    8.7620 N   0  0  0  0  0  0  0  0  0  0  0  0
    8.9250  -23.4030    9.8750 C   0  0  0  0  0  0  0  0  0  0  0  0
    8.4150  -23.5840   10.9920 O   0  0  0  0  0  0  0  0  0  0  0  0
    9.9870  -22.5280    9.6740 C   0  0  0  0  0  0  0  0  0  0  0  0
   10.5170  -22.3960    8.3800 C   0  0  0  0  0  0  0  0  0  0  0  0
    9.9660  -23.1180    7.2750 N   0  0  0  0  0  0  0  0  0  0  0  0
   12.4920  -19.7990    5.6130 C   0  0  0  0  0  0  0  0  0  0  0  0
   11.6410  -18.8160    6.3290 N   0  0  0  0  0  0  0  0  0  0  0  0
   11.5250  -17.4370    6.3980 C   0  0  0  0  0  0  0  0  0  0  0  0
   10.6470  -16.9610    7.1230 O   0  0  0  0  0  0  0  0  0  0  0  0
   12.4250  -16.3500    5.7220 C   0  0  2  0  0  0  0  0  0  0  0  0
   12.1270  -16.0960    4.3140 N   0  0  0  0  0  0  0  0  0  0  0  0
   13.9320  -16.6160    6.0000 C   0  0  0  0  0  0  0  0  0  0  0  0
  1  3  1  0  0  0  0
  1  2  1  0  0  0  0
  1 15  1  1  0  0  0
  2  7  1  0  0  0  0
  3  4  1  6  0  0  0
  3  5  1  0  0  0  0
  5  6  1  6  0  0  0
  5  7  1  0  0  0  0
  7 16  1  1  0  0  0
  8  9  2  0  0  0  0
  9 15  1  0  0  0  0
  9 10  1  0  0  0  0
 10 11  1  0  0  0  0
 11 13  1  0  0  0  0
 11 12  2  0  0  0  0
 13 14  2  0  0  0  0
 14 15  1  0  0  0  0
 16 17  1  0  0  0  0
 17 18  1  0  0  0  0
 18 20  1  0  0  0  0
 18 19  2  0  0  0  0
 20 21  1  0  0  0  0
 20 22  1  6  0  0  0
M  END
>  <COMPND>
    UNNAMED

>  <AUTHOR>
    GENERATED BY OPEN BABEL 2.4.90

>  <MASTER>
        0    0    0    0    0    0    0    0   22    0   22    0

