__5c4e_A_rec_2rj4_udp_lig_min.pdb
 OpenBabel10181902143D

 25 26  0  0  1  0  0  0  0  0999 V2000
   10.1590  -23.1990    5.8170 C   0  0  1  0  0  0  0  0  0  0  0  0
    9.2710  -22.2970    4.9620 C   0  0  2  0  0  0  0  0  0  0  0  0
    9.3230  -22.7670    3.6080 O   0  0  0  0  0  0  0  0  0  0  0  0
    9.9990  -20.9770    5.0720 C   0  0  1  0  0  0  0  0  0  0  0  0
   11.4570  -21.4370    4.9430 C   0  0  2  0  0  0  0  0  0  0  0  0
   11.5070  -22.6570    5.7270 O   0  0  0  0  0  0  0  0  0  0  0  0
    9.6400  -20.1310    3.9620 O   0  0  0  0  0  0  0  0  0  0  0  0
    9.6910  -23.2370    7.2330 N   0  0  0  0  0  0  0  0  0  0  0  0
    8.5680  -24.0320    7.5450 C   0  0  0  0  0  0  0  0  0  0  0  0
    8.1300  -24.1050    8.8670 N   0  0  0  0  0  0  0  0  0  0  0  0
    8.7720  -23.3990    9.8980 C   0  0  0  0  0  0  0  0  0  0  0  0
    9.8870  -22.6160    9.5930 C   0  0  0  0  0  0  0  0  0  0  0  0
   10.3450  -22.5360    8.2720 C   0  0  0  0  0  0  0  0  0  0  0  0
    7.9770  -24.6570    6.6620 O   0  0  0  0  0  0  0  0  0  0  0  0
    8.3410  -23.4940   11.0530 O   0  0  0  0  0  0  0  0  0  0  0  0
   12.4980  -20.4610    5.5130 C   0  0  0  0  0  0  0  0  0  0  0  0
   12.1070  -19.9360    6.7510 O   0  0  0  0  0  0  0  0  0  0  0  0
   11.8020  -18.3260    6.8890 P   0  0  1  0  0  0  0  0  0  0  0  0
   11.1390  -17.8670    5.6240 O   0  0  0  0  0  0  0  0  0  0  0  0
   11.1120  -18.1230    8.1860 O   0  0  0  0  0  0  0  0  0  0  0  0
   13.3090  -17.7340    6.9640 O   0  0  0  0  0  0  0  0  0  0  0  0
   13.6640  -16.3060    6.3400 P   0  0  0  0  0  0  0  0  0  0  0  0
   12.5890  -15.2990    6.6010 O   0  0  0  0  0  0  0  0  0  0  0  0
   15.0980  -15.8960    6.9360 O   0  0  0  0  0  0  0  0  0  0  0  0
   13.8800  -16.5390    4.8050 O   0  0  0  0  0  0  0  0  0  0  0  0
  1  2  1  0  0  0  0
  1  6  1  0  0  0  0
  1  8  1  1  0  0  0
  2  3  1  6  0  0  0
  2  4  1  0  0  0  0
  4  7  1  6  0  0  0
  4  5  1  0  0  0  0
  5 16  1  1  0  0  0
  5  6  1  0  0  0  0
  8  9  1  0  0  0  0
  8 13  1  0  0  0  0
  9 14  2  0  0  0  0
  9 10  1  0  0  0  0
 10 11  1  0  0  0  0
 11 12  1  0  0  0  0
 11 15  2  0  0  0  0
 12 13  2  0  0  0  0
 16 17  1  0  0  0  0
 17 18  1  0  0  0  0
 18 19  2  6  0  0  0
 18 21  1  0  0  0  0
 18 20  1  0  0  0  0
 21 22  1  0  0  0  0
 22 25  2  0  0  0  0
 22 24  1  0  0  0  0
 22 23  1  0  0  0  0
M  END
>  <COMPND>
    UNNAMED

>  <AUTHOR>
    GENERATED BY OPEN BABEL 2.4.90

>  <MASTER>
        0    0    0    0    0    0    0    0   25    0   25    0

