__5c4e_A_rec_1lzi_udp_lig_min.pdb
 OpenBabel10171923243D

 25 26  0  0  1  0  0  0  0  0999 V2000
   10.1180  -23.0480    5.9020 C   0  0  1  0  0  0  0  0  0  0  0  0
    9.3230  -22.0700    5.0080 C   0  0  2  0  0  0  0  0  0  0  0  0
    9.1350  -22.6090    3.7210 O   0  0  0  0  0  0  0  0  0  0  0  0
   10.2020  -20.8170    5.0030 C   0  0  1  0  0  0  0  0  0  0  0  0
   11.6040  -21.4100    5.0290 C   0  0  2  0  0  0  0  0  0  0  0  0
   11.4760  -22.5740    5.8870 O   0  0  0  0  0  0  0  0  0  0  0  0
    9.9640  -20.1250    3.7750 O   0  0  0  0  0  0  0  0  0  0  0  0
    9.6430  -23.1810    7.3130 N   0  0  0  0  0  0  0  0  0  0  0  0
    8.5500  -24.0230    7.5740 C   0  0  0  0  0  0  0  0  0  0  0  0
    8.1140  -24.1450    8.8980 N   0  0  0  0  0  0  0  0  0  0  0  0
    8.6290  -23.5240   10.0590 C   0  0  0  0  0  0  0  0  0  0  0  0
    9.8590  -22.5680    9.8120 C   0  0  0  0  0  0  0  0  0  0  0  0
   10.2830  -22.4770    8.3600 C   0  0  0  0  0  0  0  0  0  0  0  0
    7.9800  -24.6460    6.6690 O   0  0  0  0  0  0  0  0  0  0  0  0
    8.0860  -23.7740   11.1380 O   0  0  0  0  0  0  0  0  0  0  0  0
   12.6790  -20.4800    5.6310 C   0  0  0  0  0  0  0  0  0  0  0  0
   12.1150  -19.7380    6.7000 O   0  0  0  0  0  0  0  0  0  0  0  0
   11.7370  -18.2160    6.8780 P   0  0  1  0  0  0  0  0  0  0  0  0
   11.0010  -17.7860    5.6570 O   0  0  0  0  0  0  0  0  0  0  0  0
   11.0130  -18.0890    8.1850 O   0  0  0  0  0  0  0  0  0  0  0  0
   13.2120  -17.6230    6.8790 O   0  0  0  0  0  0  0  0  0  0  0  0
   13.7960  -16.2180    6.3820 P   0  0  0  0  0  0  0  0  0  0  0  0
   13.7100  -16.3060    4.7670 O   0  0  0  0  0  0  0  0  0  0  0  0
   15.1840  -16.2650    6.8920 O   0  0  0  0  0  0  0  0  0  0  0  0
   12.9270  -15.0620    6.7170 O   0  0  0  0  0  0  0  0  0  0  0  0
  1  2  1  0  0  0  0
  1  6  1  0  0  0  0
  1  8  1  1  0  0  0
  2  3  1  6  0  0  0
  2  4  1  0  0  0  0
  4  7  1  6  0  0  0
  4  5  1  0  0  0  0
  5 16  1  1  0  0  0
  5  6  1  0  0  0  0
  8  9  1  0  0  0  0
  8 13  1  0  0  0  0
  9 14  2  0  0  0  0
  9 10  1  0  0  0  0
 10 11  1  0  0  0  0
 11 12  1  0  0  0  0
 11 15  2  0  0  0  0
 12 13  2  0  0  0  0
 16 17  1  0  0  0  0
 17 18  1  0  0  0  0
 18 19  2  6  0  0  0
 18 21  1  0  0  0  0
 18 20  1  0  0  0  0
 21 22  1  0  0  0  0
 22 23  2  0  0  0  0
 22 24  1  0  0  0  0
 22 25  1  0  0  0  0
M  END
>  <COMPND>
    UNNAMED

>  <AUTHOR>
    GENERATED BY OPEN BABEL 2.4.90

>  <MASTER>
        0    0    0    0    0    0    0    0   25    0   25    0

