__5tjk_A_rec_1zj1_nlc_lig_min.pdb
 OpenBabel10171923213D

 26 27  0  0  1  0  0  0  0  0999 V2000
   17.2670   -5.8820    6.9910 C   0  0  2  0  0  0  0  0  0  0  0  0
   16.4840   -5.4190    5.8870 O   0  0  0  0  0  0  0  0  0  0  0  0
   18.4980   -6.6310    6.4730 C   0  0  1  0  0  0  0  0  0  0  0  0
   18.0690   -7.9040    5.7410 C   0  0  1  0  0  0  0  0  0  0  0  0
   19.2280   -8.6630    5.3890 O   0  0  0  0  0  0  0  0  0  0  0  0
   17.1610   -8.7560    6.6320 C   0  0  1  0  0  0  0  0  0  0  0  0
   15.9940   -7.9060    7.1160 C   0  0  2  0  0  0  0  0  0  0  0  0
   16.4770   -6.7500    7.8240 O   0  0  0  0  0  0  0  0  0  0  0  0
   19.2340   -5.7620    5.5450 N   0  0  0  0  0  0  0  0  0  0  0  0
   20.4980   -5.4040    5.7520 C   0  0  0  0  0  0  0  0  0  0  0  0
   21.0910   -4.4870    4.6800 C   0  0  0  0  0  0  0  0  0  0  0  0
   21.1680   -5.7600    6.7210 O   0  0  0  0  0  0  0  0  0  0  0  0
   15.0870   -8.7200    8.0430 C   0  0  0  0  0  0  0  0  0  0  0  0
   15.8220   -9.1460    9.1930 O   0  0  0  0  0  0  0  0  0  0  0  0
   16.6920   -9.8950    5.8970 O   0  0  0  0  0  0  0  0  0  0  0  0
   16.4030  -12.2860    6.0620 C   0  0  2  0  0  0  0  0  0  0  0  0
   15.1130  -12.1330    6.6620 O   0  0  0  0  0  0  0  0  0  0  0  0
   17.0560  -13.5810    6.5490 C   0  0  1  0  0  0  0  0  0  0  0  0
   16.2800  -14.6950    6.1020 O   0  0  0  0  0  0  0  0  0  0  0  0
   18.4760  -13.6870    5.9890 C   0  0  2  0  0  0  0  0  0  0  0  0
   19.2630  -12.4290    6.3630 C   0  0  2  0  0  0  0  0  0  0  0  0
   17.2900  -11.0910    6.4190 C   0  0  1  0  0  0  0  0  0  0  0  0
   18.5950  -11.2680    5.8410 O   0  0  0  0  0  0  0  0  0  0  0  0
   18.4060  -13.8010    4.5660 O   0  0  0  0  0  0  0  0  0  0  0  0
   20.6840  -12.5050    5.7960 C   0  0  0  0  0  0  0  0  0  0  0  0
   21.4920  -11.4880    6.3910 O   0  0  0  0  0  0  0  0  0  0  0  0
  1  3  1  0  0  0  0
  1  2  1  6  0  0  0
  1  8  1  0  0  0  0
  3  9  1  6  0  0  0
  3  4  1  0  0  0  0
  4  5  1  1  0  0  0
  4  6  1  0  0  0  0
  6 15  1  6  0  0  0
  6  7  1  0  0  0  0
  7  8  1  0  0  0  0
  7 13  1  1  0  0  0
  9 10  1  0  0  0  0
 10 11  1  0  0  0  0
 10 12  2  0  0  0  0
 13 14  1  0  0  0  0
 16 22  1  0  0  0  0
 16 18  1  0  0  0  0
 16 17  1  1  0  0  0
 18 20  1  0  0  0  0
 18 19  1  6  0  0  0
 20 24  1  6  0  0  0
 20 21  1  0  0  0  0
 21 25  1  6  0  0  0
 21 23  1  0  0  0  0
 22 15  1  6  0  0  0
 22 23  1  0  0  0  0
 25 26  1  0  0  0  0
M  END
>  <COMPND>
    UNNAMED

>  <AUTHOR>
    GENERATED BY OPEN BABEL 2.4.90

>  <MASTER>
        0    0    0    0    0    0    0    0   26    0   26    0

