__5l1r_A_rec_5l1p_7pt_lig_docked.pdb
 OpenBabel10201907003D

 20 23  0  0  1  0  0  0  0  0999 V2000
   24.4880   23.7480   19.5540 C   0  0  1  0  0  0  0  0  0  0  0  0
   24.6550   19.9730   21.2510 O   0  0  0  0  0  0  0  0  0  0  0  0
   24.5020   22.8380   18.4670 C   0  0  2  0  0  0  0  0  0  0  0  0
   23.8260   21.6980   18.7130 C   0  0  0  0  0  0  0  0  0  0  0  0
   23.2280   21.7460   19.9980 C   0  0  2  0  0  0  0  0  0  0  0  0
   21.7590   22.2310   19.9490 C   0  0  1  0  0  0  0  0  0  0  0  0
   25.2790   23.1060   17.1680 C   0  0  0  0  0  0  0  0  0  0  0  0
   23.6800   24.9920   19.1800 C   0  0  0  0  0  0  0  0  0  0  0  0
   22.8850   23.4430   21.5270 C   0  0  0  0  0  0  0  0  0  0  0  0
   20.8410   20.9940   20.1300 C   0  0  0  0  0  0  0  0  0  0  0  0
   23.5610   20.2690   22.2150 C   0  0  0  0  0  0  0  0  0  0  0  0
   22.6650   19.3870   20.0470 C   0  0  0  0  0  0  0  0  0  0  0  0
   21.6450   23.0900   21.0760 C   0  0  2  0  0  0  0  0  0  0  0  0
   23.9360   22.8790   20.7300 C   0  0  2  0  0  0  0  0  0  0  0  0
   23.3790   20.3760   20.7190 C   0  0  2  0  0  0  0  0  0  0  0  0
   23.2070   18.3130   19.7800 O   0  0  0  0  0  0  0  0  0  0  0  0
   21.3960   19.7300   19.6350 O   0  0  0  0  0  0  0  0  0  0  0  0
   20.4720   23.4930   21.6510 C   0  0  0  0  0  0  0  0  0  0  0  0
   19.5770   24.0840   21.0140 O   0  0  0  0  0  0  0  0  0  0  0  0
   20.2360   23.3270   22.8640 O   0  0  0  0  0  0  0  0  0  0  0  0
  1  3  1  0  0  0  0
  1  8  1  6  0  0  0
  1 14  1  0  0  0  0
  2 15  1  0  0  0  0
  2 11  1  0  0  0  0
  3  7  1  1  0  0  0
  3  4  1  0  0  0  0
  5  4  1  6  0  0  0
  5  6  1  0  0  0  0
  5 14  1  0  0  0  0
  5 15  1  0  0  0  0
  6 10  1  1  0  0  0
  6 13  1  0  0  0  0
  9 13  1  0  0  0  0
 10 17  1  0  0  0  0
 12 17  1  0  0  0  0
 12 16  2  0  0  0  0
 12 15  1  0  0  0  0
 13 18  1  1  0  0  0
 14  9  1  6  0  0  0
 15 11  1  1  0  0  0
 18 19  2  0  0  0  0
 18 20  1  0  0  0  0
M  END
>  <MODEL>
       2

>  <COMPND>
    UNNAMED

>  <AUTHOR>
    GENERATED BY OPEN BABEL 2.4.90

>  <MASTER>
        0    0    0    0    0    0    0    0   20    0   20    0

