__5l1r_A_rec_5l1q_7df_lig_docked.pdb
 OpenBabel10201907013D

 20 23  0  0  1  0  0  0  0  0999 V2000
   25.0060   23.5620   19.3950 C   0  0  0  0  0  0  0  0  0  0  0  0
   24.4930   23.0380   18.0370 C   0  0  0  0  0  0  0  0  0  0  0  0
   24.1230   21.5680   18.3890 C   0  0  0  0  0  0  0  0  0  0  0  0
   23.5150   21.6280   19.8370 C   0  0  1  0  0  0  0  0  0  0  0  0
   21.9790   21.8680   19.9210 C   0  0  2  0  0  0  0  0  0  0  0  0
   21.8860   22.7170   21.2030 C   0  0  1  0  0  0  0  0  0  0  0  0
   23.8640   20.2940   20.5560 C   0  0  1  0  0  0  0  0  0  0  0  0
   24.1280   20.2270   22.0490 C   0  0  0  0  0  0  0  0  0  0  0  0
   23.2270   19.2140   19.9010 C   0  0  0  0  0  0  0  0  0  0  0  0
   25.6450   23.0700   17.0230 C   0  0  0  0  0  0  0  0  0  0  0  0
   23.3170   23.8500   17.4550 C   0  0  0  0  0  0  0  0  0  0  0  0
   21.2110   20.5420   20.1490 C   0  0  0  0  0  0  0  0  0  0  0  0
   22.9090   23.7880   20.8720 C   0  0  0  0  0  0  0  0  0  0  0  0
   24.1250   22.9010   20.4980 C   0  0  2  0  0  0  0  0  0  0  0  0
   23.8850   18.2360   19.5220 O   0  0  0  0  0  0  0  0  0  0  0  0
   21.8890   19.3730   19.6070 O   0  0  0  0  0  0  0  0  0  0  0  0
   25.1890   20.0530   21.0520 O   0  0  0  0  0  0  0  0  0  0  0  0
   20.5020   23.3460   21.4670 C   0  0  0  0  0  0  0  0  0  0  0  0
   19.8680   23.7970   20.4930 O   0  0  0  0  0  0  0  0  0  0  0  0
   20.1140   23.3920   22.6560 O   0  0  0  0  0  0  0  0  0  0  0  0
  1  2  1  0  0  0  0
  2 10  1  0  0  0  0
  2 11  1  0  0  0  0
  2  3  1  0  0  0  0
  4  3  1  6  0  0  0
  4  5  1  0  0  0  0
  4 14  1  0  0  0  0
  4  7  1  0  0  0  0
  5 12  1  1  0  0  0
  5  6  1  0  0  0  0
  6 13  1  0  0  0  0
  6 18  1  6  0  0  0
  7  9  1  0  0  0  0
  7 17  1  0  0  0  0
  7  8  1  1  0  0  0
  8 17  1  0  0  0  0
  9 16  1  0  0  0  0
  9 15  2  0  0  0  0
 12 16  1  0  0  0  0
 13 14  1  0  0  0  0
 14  1  1  6  0  0  0
 18 19  2  0  0  0  0
 18 20  1  0  0  0  0
M  END
>  <MODEL>
       2

>  <COMPND>
    UNNAMED

>  <AUTHOR>
    GENERATED BY OPEN BABEL 2.4.90

>  <MASTER>
        0    0    0    0    0    0    0    0   20    0   20    0

