__1gic_A_rec_1gic_gyp_lig_docked.pdb
 OpenBabel10181911563D

 13 13  0  0  1  0  0  0  0  0999 V2000
   63.2950   99.7730   30.0040 C   0  0  2  0  0  0  0  0  0  0  0  0
   62.1750   98.8130   30.3760 C   0  0  1  0  0  0  0  0  0  0  0  0
   61.8450   97.8600   29.2590 C   0  0  2  0  0  0  0  0  0  0  0  0
   61.5840   98.6240   27.9900 C   0  0  1  0  0  0  0  0  0  0  0  0
   62.7450   99.5660   27.6520 C   0  0  2  0  0  0  0  0  0  0  0  0
   62.5810   98.0390   31.4680 O   0  0  0  0  0  0  0  0  0  0  0  0
   60.7120   97.1240   29.6330 O   0  0  0  0  0  0  0  0  0  0  0  0
   61.4480   97.6600   26.9980 O   0  0  0  0  0  0  0  0  0  0  0  0
   63.0150  100.4350   28.7560 O   0  0  0  0  0  0  0  0  0  0  0  0
   62.4230  100.4490   26.4720 C   0  0  0  0  0  0  0  0  0  0  0  0
   61.4650  101.4240   26.8460 O   0  0  0  0  0  0  0  0  0  0  0  0
   65.9120   99.0910   29.6360 C   0  0  0  0  0  0  0  0  0  0  0  0
   64.5340   99.0220   29.9030 O   0  0  0  0  0  0  0  0  0  0  0  0
  1  9  1  0  0  0  0
  1 13  1  6  0  0  0
  1  2  1  0  0  0  0
  2  3  1  0  0  0  0
  2  6  1  1  0  0  0
  3  4  1  0  0  0  0
  3  7  1  1  0  0  0
  4  8  1  6  0  0  0
  4  5  1  0  0  0  0
  5 10  1  6  0  0  0
  5  9  1  0  0  0  0
 10 11  1  0  0  0  0
 12 13  1  0  0  0  0
M  END
>  <MODEL>
       1

>  <COMPND>
    UNNAMED

>  <AUTHOR>
    GENERATED BY OPEN BABEL 2.4.90

>  <MASTER>
        0    0    0    0    0    0    0    0   13    0   13    0

