__1gic_A_rec_4pf5_m3n_lig_docked.pdb
 OpenBabel10181912003D

 18 19  0  0  1  0  0  0  0  0999 V2000
   63.5790  100.0030   29.7180 C   0  0  2  0  0  0  0  0  0  0  0  0
   62.5190   99.0660   30.2580 C   0  0  1  0  0  0  0  0  0  0  0  0
   61.4280   99.8340   30.7260 O   0  0  0  0  0  0  0  0  0  0  0  0
   62.0450   98.1000   29.2100 C   0  0  1  0  0  0  0  0  0  0  0  0
   60.9440   97.3860   29.7050 O   0  0  0  0  0  0  0  0  0  0  0  0
   61.6910   98.7940   27.9100 C   0  0  2  0  0  0  0  0  0  0  0  0
   61.4500   97.8090   26.9150 O   0  0  0  0  0  0  0  0  0  0  0  0
   62.8460   99.6430   27.4210 C   0  0  2  0  0  0  0  0  0  0  0  0
   63.2980  100.5130   28.4060 O   0  0  0  0  0  0  0  0  0  0  0  0
   67.1830   99.5450   29.7300 C   0  0  0  0  0  0  0  0  0  0  0  0
   66.0420  100.2090   29.2940 C   0  0  0  0  0  0  0  0  0  0  0  0
   64.9590   99.6090   29.8440 N   0  0  0  0  0  0  0  0  0  0  0  0
   65.4280   98.6190   30.6480 N   0  0  0  0  0  0  0  0  0  0  0  0
   66.7980   98.5780   30.5600 N   0  0  0  0  0  0  0  0  0  0  0  0
   68.6290   99.8860   29.3450 C   0  0  0  0  0  0  0  0  0  0  0  0
   68.5680  101.2180   28.8490 O   0  0  0  0  0  0  0  0  0  0  0  0
   62.3350  100.5150   26.2440 C   0  0  0  0  0  0  0  0  0  0  0  0
   61.4390  101.5190   26.7820 O   0  0  0  0  0  0  0  0  0  0  0  0
  1  9  1  0  0  0  0
  1 12  1  6  0  0  0
  1  2  1  0  0  0  0
  2  4  1  0  0  0  0
  2  3  1  6  0  0  0
  4  6  1  0  0  0  0
  4  5  1  1  0  0  0
  6  7  1  6  0  0  0
  6  8  1  0  0  0  0
  8 17  1  6  0  0  0
  8  9  1  0  0  0  0
 10 11  2  0  0  0  0
 10 15  1  0  0  0  0
 10 14  1  0  0  0  0
 11 12  1  0  0  0  0
 12 13  1  0  0  0  0
 13 14  2  0  0  0  0
 15 16  1  0  0  0  0
 17 18  1  0  0  0  0
M  END
>  <MODEL>
       7

>  <COMPND>
    UNNAMED

>  <AUTHOR>
    GENERATED BY OPEN BABEL 2.4.90

>  <MASTER>
        0    0    0    0    0    0    0    0   18    0   18    0

