__1hqw_A_rec_4k21_xmm_lig_docked.pdb
 OpenBabel10181911113D

 23 25  0  0  1  0  0  0  0  0999 V2000
   61.6790   99.8470   30.6960 O   0  0  0  0  0  0  0  0  0  0  0  0
   62.6600   98.8780   30.2890 C   0  0  1  0  0  0  0  0  0  0  0  0
   62.0880   97.9500   29.3440 C   0  0  1  0  0  0  0  0  0  0  0  0
   60.9110   97.3090   29.8370 O   0  0  0  0  0  0  0  0  0  0  0  0
   61.8430   98.5920   28.0260 C   0  0  2  0  0  0  0  0  0  0  0  0
   61.4160   97.6750   27.0320 O   0  0  0  0  0  0  0  0  0  0  0  0
   62.9480   99.4270   27.5670 C   0  0  2  0  0  0  0  0  0  0  0  0
   63.4880  100.2240   28.5670 O   0  0  0  0  0  0  0  0  0  0  0  0
   63.8120   99.5260   29.7580 C   0  0  2  0  0  0  0  0  0  0  0  0
   62.5770  100.2900   26.3580 C   0  0  0  0  0  0  0  0  0  0  0  0
   61.6930  101.3450   26.6940 O   0  0  0  0  0  0  0  0  0  0  0  0
   64.8620   98.5810   29.5390 O   0  0  0  0  0  0  0  0  0  0  0  0
   66.1450   99.1840   29.3430 C   0  0  0  0  0  0  0  0  0  0  0  0
   67.1240   99.3030   30.2730 C   0  0  1  0  0  0  0  0  0  0  0  0
   68.3170   99.8320   29.5840 C   0  0  0  0  0  0  0  0  0  0  0  0
   68.0420   99.9030   28.2320 N   0  0  0  0  0  0  0  0  0  0  0  0
   66.7080   99.5820   28.0180 C   0  0  0  0  0  0  0  0  0  0  0  0
   67.1740   99.0460   31.7050 C   0  0  0  0  0  0  0  0  0  0  0  0
   65.7540   98.3840   32.5540 Cl  0  0  0  0  0  0  0  0  0  0  0  0
   68.3690   99.2770   32.3970 C   0  0  0  0  0  0  0  0  0  0  0  0
   68.3980   98.9420   34.2830 Br  0  0  0  0  0  0  0  0  0  0  0  0
   69.5690   99.8140   31.7260 C   0  0  0  0  0  0  0  0  0  0  0  0
   69.5200  100.0750   30.2990 C   0  0  0  0  0  0  0  0  0  0  0  0
  2  1  1  6  0  0  0
  2  3  1  0  0  0  0
  2  9  1  0  0  0  0
  3  5  1  0  0  0  0
  3  4  1  1  0  0  0
  5  6  1  6  0  0  0
  5  7  1  0  0  0  0
  7 10  1  6  0  0  0
  7  8  1  0  0  0  0
  8  9  1  0  0  0  0
  9 12  1  6  0  0  0
 10 11  1  0  0  0  0
 12 13  1  0  0  0  0
 13 17  2  0  0  0  0
 14 13  1  1  0  0  0
 14 15  1  0  0  0  0
 14 18  1  0  0  0  0
 15 16  2  0  0  0  0
 15 23  1  0  0  0  0
 16 17  1  0  0  0  0
 18 20  2  0  0  0  0
 18 19  1  0  0  0  0
 20 22  1  0  0  0  0
 20 21  1  0  0  0  0
 22 23  2  0  0  0  0
M  END
>  <MODEL>
       7

>  <COMPND>
    UNNAMED

>  <AUTHOR>
    GENERATED BY OPEN BABEL 2.4.90

>  <MASTER>
        0    0    0    0    0    0    0    0   23    0   23    0

