__1hqw_A_rec_2d7f_mma_lig_docked.pdb
 OpenBabel10181911113D

 13 13  0  0  1  0  0  0  0  0999 V2000
   63.7160   99.2200   29.5950 C   0  0  1  0  0  0  0  0  0  0  0  0
   62.4880   98.9450   30.5020 C   0  0  2  0  0  0  0  0  0  0  0  0
   61.5960   98.0190   29.5530 C   0  0  2  0  0  0  0  0  0  0  0  0
   61.5150   98.6410   28.0900 C   0  0  1  0  0  0  0  0  0  0  0  0
   62.7170   99.5410   27.6630 C   0  0  2  0  0  0  0  0  0  0  0  0
   61.8200  100.1650   30.8810 O   0  0  0  0  0  0  0  0  0  0  0  0
   60.3500   97.5040   30.1450 O   0  0  0  0  0  0  0  0  0  0  0  0
   61.4170   97.6440   27.1220 O   0  0  0  0  0  0  0  0  0  0  0  0
   63.2360  100.2630   28.7610 O   0  0  0  0  0  0  0  0  0  0  0  0
   62.5660  100.5850   26.5630 C   0  0  0  0  0  0  0  0  0  0  0  0
   61.3730  101.2560   26.7510 O   0  0  0  0  0  0  0  0  0  0  0  0
   66.1640   98.8790   29.3950 C   0  0  0  0  0  0  0  0  0  0  0  0
   65.0270   99.4570   30.0920 O   0  0  0  0  0  0  0  0  0  0  0  0
  1  9  1  0  0  0  0
  1 13  1  1  0  0  0
  1  2  1  0  0  0  0
  2  3  1  0  0  0  0
  2  6  1  6  0  0  0
  3  4  1  0  0  0  0
  3  7  1  1  0  0  0
  4  8  1  6  0  0  0
  4  5  1  0  0  0  0
  5 10  1  6  0  0  0
  5  9  1  0  0  0  0
 10 11  1  0  0  0  0
 12 13  1  0  0  0  0
M  END
>  <MODEL>
       1

>  <COMPND>
    UNNAMED

>  <AUTHOR>
    GENERATED BY OPEN BABEL 2.4.90

>  <MASTER>
        0    0    0    0    0    0    0    0   13    0   13    0

