__1jw6_A_rec_5u3e_mma_lig_docked.pdb
 OpenBabel10181910513D

 13 13  0  0  1  0  0  0  0  0999 V2000
   63.4020   99.6700   30.1250 C   0  0  2  0  0  0  0  0  0  0  0  0
   62.3020   98.6850   30.5120 C   0  0  2  0  0  0  0  0  0  0  0  0
   61.8890   97.8290   29.3690 C   0  0  2  0  0  0  0  0  0  0  0  0
   61.6060   98.6240   28.1230 C   0  0  1  0  0  0  0  0  0  0  0  0
   62.7380   99.5940   27.7620 C   0  0  2  0  0  0  0  0  0  0  0  0
   61.1650   99.4030   31.0300 O   0  0  0  0  0  0  0  0  0  0  0  0
   60.6930   97.0880   29.7470 O   0  0  0  0  0  0  0  0  0  0  0  0
   61.4340   97.7000   27.0580 O   0  0  0  0  0  0  0  0  0  0  0  0
   63.0550  100.4660   28.9070 O   0  0  0  0  0  0  0  0  0  0  0  0
   62.3480  100.4550   26.5930 C   0  0  0  0  0  0  0  0  0  0  0  0
   61.3660  101.3740   27.0030 O   0  0  0  0  0  0  0  0  0  0  0  0
   65.2920   98.6070   30.9800 C   0  0  0  0  0  0  0  0  0  0  0  0
   64.5460   98.9700   29.8510 O   0  0  0  0  0  0  0  0  0  0  0  0
  1  9  1  0  0  0  0
  1 13  1  6  0  0  0
  1  2  1  0  0  0  0
  2  3  1  0  0  0  0
  2  6  1  6  0  0  0
  3  4  1  0  0  0  0
  3  7  1  1  0  0  0
  4  8  1  6  0  0  0
  4  5  1  0  0  0  0
  5 10  1  6  0  0  0
  5  9  1  0  0  0  0
 10 11  1  0  0  0  0
 12 13  1  0  0  0  0
M  END
>  <MODEL>
       3

>  <COMPND>
    UNNAMED

>  <AUTHOR>
    GENERATED BY OPEN BABEL 2.4.90

>  <MASTER>
        0    0    0    0    0    0    0    0   13    0   13    0

