__1jw6_A_rec_4k21_xmm_lig_docked.pdb
 OpenBabel10181910523D

 23 25  0  0  1  0  0  0  0  0999 V2000
   61.7610   99.5950   30.9020 O   0  0  0  0  0  0  0  0  0  0  0  0
   62.7560   98.7120   30.3570 C   0  0  1  0  0  0  0  0  0  0  0  0
   62.1660   97.8350   29.3760 C   0  0  1  0  0  0  0  0  0  0  0  0
   61.0540   97.0990   29.8860 O   0  0  0  0  0  0  0  0  0  0  0  0
   61.8070   98.5670   28.1330 C   0  0  2  0  0  0  0  0  0  0  0  0
   61.3570   97.7120   27.0950 O   0  0  0  0  0  0  0  0  0  0  0  0
   62.8410   99.4900   27.6770 C   0  0  2  0  0  0  0  0  0  0  0  0
   63.4080  100.2310   28.7050 O   0  0  0  0  0  0  0  0  0  0  0  0
   63.8420   99.4570   29.8120 C   0  0  2  0  0  0  0  0  0  0  0  0
   62.3530  100.4270   26.5690 C   0  0  0  0  0  0  0  0  0  0  0  0
   61.3680  101.3400   27.0230 O   0  0  0  0  0  0  0  0  0  0  0  0
   64.9160   98.5870   29.4510 O   0  0  0  0  0  0  0  0  0  0  0  0
   66.0460   99.2690   28.8970 C   0  0  0  0  0  0  0  0  0  0  0  0
   67.1110   99.7430   29.5870 C   0  0  1  0  0  0  0  0  0  0  0  0
   68.0970  100.2160   28.5960 C   0  0  0  0  0  0  0  0  0  0  0  0
   67.6310   99.8980   27.3340 N   0  0  0  0  0  0  0  0  0  0  0  0
   66.3490   99.3730   27.4380 C   0  0  0  0  0  0  0  0  0  0  0  0
   67.3990   99.8760   31.0080 C   0  0  0  0  0  0  0  0  0  0  0  0
   66.2350   99.2920   32.2230 Cl  0  0  0  0  0  0  0  0  0  0  0  0
   68.6250  100.4230   31.4060 C   0  0  0  0  0  0  0  0  0  0  0  0
   68.9670  100.5970   33.2830 Br  0  0  0  0  0  0  0  0  0  0  0  0
   69.6190  100.9080   30.4280 C   0  0  0  0  0  0  0  0  0  0  0  0
   69.3320  100.7800   29.0120 C   0  0  0  0  0  0  0  0  0  0  0  0
  2  1  1  6  0  0  0
  2  3  1  0  0  0  0
  2  9  1  0  0  0  0
  3  5  1  0  0  0  0
  3  4  1  1  0  0  0
  5  6  1  6  0  0  0
  5  7  1  0  0  0  0
  7 10  1  6  0  0  0
  7  8  1  0  0  0  0
  8  9  1  0  0  0  0
  9 12  1  6  0  0  0
 10 11  1  0  0  0  0
 12 13  1  0  0  0  0
 13 17  2  0  0  0  0
 14 13  1  1  0  0  0
 14 15  1  0  0  0  0
 14 18  1  0  0  0  0
 15 16  2  0  0  0  0
 15 23  1  0  0  0  0
 16 17  1  0  0  0  0
 18 20  2  0  0  0  0
 18 19  1  0  0  0  0
 20 22  1  0  0  0  0
 20 21  1  0  0  0  0
 22 23  2  0  0  0  0
M  END
>  <MODEL>
       8

>  <COMPND>
    UNNAMED

>  <AUTHOR>
    GENERATED BY OPEN BABEL 2.4.90

>  <MASTER>
        0    0    0    0    0    0    0    0   23    0   23    0

