__1ona_A_rec_1cjp_mug_lig_docked.pdb
 OpenBabel10181911363D

 24 26  0  0  1  0  0  0  0  0999 V2000
   63.3530   99.5880   30.0090 C   0  0  2  0  0  0  0  0  0  0  0  0
   62.0290   99.0480   30.5200 C   0  0  2  0  0  0  0  0  0  0  0  0
   62.2080   98.4690   31.8040 O   0  0  0  0  0  0  0  0  0  0  0  0
   61.5330   97.9830   29.5550 C   0  0  1  0  0  0  0  0  0  0  0  0
   60.2690   97.4830   29.9750 O   0  0  0  0  0  0  0  0  0  0  0  0
   61.4140   98.5450   28.1500 C   0  0  2  0  0  0  0  0  0  0  0  0
   61.1720   97.4620   27.2730 O   0  0  0  0  0  0  0  0  0  0  0  0
   62.6930   99.2820   27.7120 C   0  0  2  0  0  0  0  0  0  0  0  0
   63.1420  100.1920   28.7430 O   0  0  0  0  0  0  0  0  0  0  0  0
   62.4530  100.1290   26.4740 C   0  0  0  0  0  0  0  0  0  0  0  0
   61.8550  101.3720   26.8220 O   0  0  0  0  0  0  0  0  0  0  0  0
   64.2440   98.5170   29.9380 O   0  0  0  0  0  0  0  0  0  0  0  0
   68.2240  100.7370   27.9640 O   0  0  0  0  0  0  0  0  0  0  0  0
   69.3820  100.5730   27.1740 C   0  0  0  0  0  0  0  0  0  0  0  0
   70.0850  101.4860   26.9230 O   0  0  0  0  0  0  0  0  0  0  0  0
   69.7510   99.3630   26.6470 C   0  0  0  0  0  0  0  0  0  0  0  0
   68.9780   98.2600   26.8860 C   0  0  0  0  0  0  0  0  0  0  0  0
   69.4390   96.9370   26.3090 C   0  0  0  0  0  0  0  0  0  0  0  0
   67.8060   98.3680   27.6600 C   0  0  0  0  0  0  0  0  0  0  0  0
   67.0160   97.2460   27.8790 C   0  0  0  0  0  0  0  0  0  0  0  0
   65.8610   97.3540   28.6340 C   0  0  0  0  0  0  0  0  0  0  0  0
   65.4640   98.5640   29.1900 C   0  0  0  0  0  0  0  0  0  0  0  0
   66.2470   99.6980   28.9800 C   0  0  0  0  0  0  0  0  0  0  0  0
   67.4200   99.6110   28.2150 C   0  0  0  0  0  0  0  0  0  0  0  0
  1  9  1  0  0  0  0
  1 12  1  6  0  0  0
  1  2  1  0  0  0  0
  2  4  1  0  0  0  0
  2  3  1  1  0  0  0
  4  6  1  0  0  0  0
  4  5  1  1  0  0  0
  6  7  1  6  0  0  0
  6  8  1  0  0  0  0
  8 10  1  6  0  0  0
  8  9  1  0  0  0  0
 10 11  1  0  0  0  0
 12 22  1  0  0  0  0
 13 14  1  0  0  0  0
 13 24  1  0  0  0  0
 14 16  1  0  0  0  0
 14 15  2  0  0  0  0
 16 17  2  0  0  0  0
 17 18  1  0  0  0  0
 17 19  1  0  0  0  0
 19 20  2  0  0  0  0
 19 24  1  0  0  0  0
 20 21  1  0  0  0  0
 21 22  2  0  0  0  0
 22 23  1  0  0  0  0
 23 24  2  0  0  0  0
M  END
>  <MODEL>
       4

>  <COMPND>
    UNNAMED

>  <AUTHOR>
    GENERATED BY OPEN BABEL 2.4.90

>  <MASTER>
        0    0    0    0    0    0    0    0   24    0   24    0

