__1ona_A_rec_5cna_mma_lig_docked.pdb
 OpenBabel10181911373D

 13 13  0  0  1  0  0  0  0  0999 V2000
   63.0840   99.7230   30.1600 C   0  0  2  0  0  0  0  0  0  0  0  0
   61.8650   98.8420   30.5530 C   0  0  2  0  0  0  0  0  0  0  0  0
   61.6580   97.8600   29.4800 C   0  0  2  0  0  0  0  0  0  0  0  0
   61.4470   98.5470   28.1470 C   0  0  1  0  0  0  0  0  0  0  0  0
   62.6480   99.4000   27.8140 C   0  0  2  0  0  0  0  0  0  0  0  0
   60.6890   99.5580   30.7660 O   0  0  0  0  0  0  0  0  0  0  0  0
   60.5410   97.0760   29.7660 O   0  0  0  0  0  0  0  0  0  0  0  0
   61.3090   97.4980   27.2120 O   0  0  0  0  0  0  0  0  0  0  0  0
   62.8400  100.3540   28.8760 O   0  0  0  0  0  0  0  0  0  0  0  0
   62.3760  100.1620   26.5030 C   0  0  0  0  0  0  0  0  0  0  0  0
   61.7930  101.4240   26.7960 O   0  0  0  0  0  0  0  0  0  0  0  0
   65.4120   99.5480   30.3210 C   0  0  0  0  0  0  0  0  0  0  0  0
   64.2270   98.8450   30.0660 O   0  0  0  0  0  0  0  0  0  0  0  0
  1  9  1  0  0  0  0
  1 13  1  6  0  0  0
  1  2  1  0  0  0  0
  2  3  1  0  0  0  0
  2  6  1  6  0  0  0
  3  4  1  0  0  0  0
  3  7  1  1  0  0  0
  4  8  1  6  0  0  0
  4  5  1  0  0  0  0
  5 10  1  6  0  0  0
  5  9  1  0  0  0  0
 10 11  1  0  0  0  0
 12 13  1  0  0  0  0
M  END
>  <MODEL>
       1

>  <COMPND>
    UNNAMED

>  <AUTHOR>
    GENERATED BY OPEN BABEL 2.4.90

>  <MASTER>
        0    0    0    0    0    0    0    0   13    0   13    0

