__1ona_A_rec_2d7f_mma_lig_docked.pdb
 OpenBabel10181911373D

 13 13  0  0  1  0  0  0  0  0999 V2000
   63.5720   99.2960   29.5150 C   0  0  1  0  0  0  0  0  0  0  0  0
   62.3460   99.0400   30.4310 C   0  0  2  0  0  0  0  0  0  0  0  0
   61.5130   97.9930   29.5560 C   0  0  2  0  0  0  0  0  0  0  0  0
   61.4220   98.4820   28.0450 C   0  0  1  0  0  0  0  0  0  0  0  0
   62.5860   99.4000   27.5520 C   0  0  2  0  0  0  0  0  0  0  0  0
   61.6150  100.2540   30.6950 O   0  0  0  0  0  0  0  0  0  0  0  0
   60.2850   97.4710   30.1800 O   0  0  0  0  0  0  0  0  0  0  0  0
   61.3860   97.4020   27.1660 O   0  0  0  0  0  0  0  0  0  0  0  0
   63.0530  100.2390   28.5890 O   0  0  0  0  0  0  0  0  0  0  0  0
   62.4000  100.3370   26.3650 C   0  0  0  0  0  0  0  0  0  0  0  0
   61.7270  101.4650   26.7930 O   0  0  0  0  0  0  0  0  0  0  0  0
   65.9850   99.6670   29.0790 C   0  0  0  0  0  0  0  0  0  0  0  0
   64.8630   99.6390   30.0020 O   0  0  0  0  0  0  0  0  0  0  0  0
  1  9  1  0  0  0  0
  1 13  1  1  0  0  0
  1  2  1  0  0  0  0
  2  3  1  0  0  0  0
  2  6  1  6  0  0  0
  3  4  1  0  0  0  0
  3  7  1  1  0  0  0
  4  8  1  6  0  0  0
  4  5  1  0  0  0  0
  5 10  1  6  0  0  0
  5  9  1  0  0  0  0
 10 11  1  0  0  0  0
 12 13  1  0  0  0  0
M  END
>  <MODEL>
       2

>  <COMPND>
    UNNAMED

>  <AUTHOR>
    GENERATED BY OPEN BABEL 2.4.90

>  <MASTER>
        0    0    0    0    0    0    0    0   13    0   13    0

