__1qdc_A_rec_1cjp_mug_lig_docked.pdb
 OpenBabel10181912163D

 24 26  0  0  1  0  0  0  0  0999 V2000
   63.7580   99.6090   29.5980 C   0  0  2  0  0  0  0  0  0  0  0  0
   62.5290   98.9750   30.2260 C   0  0  2  0  0  0  0  0  0  0  0  0
   62.8890   98.3090   31.4260 O   0  0  0  0  0  0  0  0  0  0  0  0
   61.9500   97.9660   29.2470 C   0  0  1  0  0  0  0  0  0  0  0  0
   60.7670   97.3810   29.7800 O   0  0  0  0  0  0  0  0  0  0  0  0
   61.6330   98.6260   27.9180 C   0  0  2  0  0  0  0  0  0  0  0  0
   61.3160   97.6030   26.9940 O   0  0  0  0  0  0  0  0  0  0  0  0
   62.8190   99.4490   27.3840 C   0  0  2  0  0  0  0  0  0  0  0  0
   63.3660  100.2970   28.4210 O   0  0  0  0  0  0  0  0  0  0  0  0
   62.3950  100.3760   26.2580 C   0  0  0  0  0  0  0  0  0  0  0  0
   61.5610  101.4180   26.7500 O   0  0  0  0  0  0  0  0  0  0  0  0
   64.6680   98.5860   29.3310 O   0  0  0  0  0  0  0  0  0  0  0  0
   68.3980  101.3680   27.5950 O   0  0  0  0  0  0  0  0  0  0  0  0
   69.6340  101.3720   26.9120 C   0  0  0  0  0  0  0  0  0  0  0  0
   70.2000  102.3790   26.6790 O   0  0  0  0  0  0  0  0  0  0  0  0
   70.2390  100.2230   26.4740 C   0  0  0  0  0  0  0  0  0  0  0  0
   69.6350   99.0160   26.6980 C   0  0  0  0  0  0  0  0  0  0  0  0
   70.3550   97.7690   26.2230 C   0  0  0  0  0  0  0  0  0  0  0  0
   68.3970   98.9540   27.3660 C   0  0  0  0  0  0  0  0  0  0  0  0
   67.7820   97.7250   27.5700 C   0  0  0  0  0  0  0  0  0  0  0  0
   66.5620   97.6650   28.2200 C   0  0  0  0  0  0  0  0  0  0  0  0
   65.9270   98.8090   28.6850 C   0  0  0  0  0  0  0  0  0  0  0  0
   66.5310  100.0500   28.4880 C   0  0  0  0  0  0  0  0  0  0  0  0
   67.7680  100.1330   27.8300 C   0  0  0  0  0  0  0  0  0  0  0  0
  1  9  1  0  0  0  0
  1 12  1  6  0  0  0
  1  2  1  0  0  0  0
  2  4  1  0  0  0  0
  2  3  1  1  0  0  0
  4  6  1  0  0  0  0
  4  5  1  1  0  0  0
  6  7  1  6  0  0  0
  6  8  1  0  0  0  0
  8 10  1  6  0  0  0
  8  9  1  0  0  0  0
 10 11  1  0  0  0  0
 12 22  1  0  0  0  0
 13 14  1  0  0  0  0
 13 24  1  0  0  0  0
 14 16  1  0  0  0  0
 14 15  2  0  0  0  0
 16 17  2  0  0  0  0
 17 18  1  0  0  0  0
 17 19  1  0  0  0  0
 19 20  2  0  0  0  0
 19 24  1  0  0  0  0
 20 21  1  0  0  0  0
 21 22  2  0  0  0  0
 22 23  1  0  0  0  0
 23 24  2  0  0  0  0
M  END
>  <MODEL>
       4

>  <COMPND>
    UNNAMED

>  <AUTHOR>
    GENERATED BY OPEN BABEL 2.4.90

>  <MASTER>
        0    0    0    0    0    0    0    0   24    0   24    0

