__3d4k_C_rec_4k1y_mdm_lig_docked.pdb
 OpenBabel10181912273D

 24 25  0  0  1  0  0  0  0  0999 V2000
   64.6330   98.6670   29.9680 O   0  0  0  0  0  0  0  0  0  0  0  0
   63.7850   99.8090   30.1200 C   0  0  2  0  0  0  0  0  0  0  0  0
   62.4820   99.3280   30.7330 C   0  0  2  0  0  0  0  0  0  0  0  0
   61.8100   98.3750   29.7560 C   0  0  2  0  0  0  0  0  0  0  0  0
   61.5480   99.1420   28.4600 C   0  0  1  0  0  0  0  0  0  0  0  0
   62.8640   99.6140   27.9130 C   0  0  2  0  0  0  0  0  0  0  0  0
   61.5710  100.4120   30.9300 O   0  0  0  0  0  0  0  0  0  0  0  0
   60.5780   97.8950   30.2980 O   0  0  0  0  0  0  0  0  0  0  0  0
   60.9470   98.2820   27.4630 O   0  0  0  0  0  0  0  0  0  0  0  0
   63.5110  100.4720   28.8580 O   0  0  0  0  0  0  0  0  0  0  0  0
   62.6270  100.3920   26.6220 C   0  0  0  0  0  0  0  0  0  0  0  0
   61.5850  101.3410   26.8230 O   0  0  0  0  0  0  0  0  0  0  0  0
   67.8200   98.9510   27.9690 C   0  0  2  0  0  0  0  0  0  0  0  0
   66.3560   98.6060   28.2210 C   0  0  2  0  0  0  0  0  0  0  0  0
   66.0210   98.9700   29.6370 C   0  0  2  0  0  0  0  0  0  0  0  0
   66.9160   98.2040   30.5510 C   0  0  1  0  0  0  0  0  0  0  0  0
   68.3870   98.4950   30.2390 C   0  0  2  0  0  0  0  0  0  0  0  0
   66.1190   97.2260   27.8530 O   0  0  0  0  0  0  0  0  0  0  0  0
   66.5100   98.5440   31.9150 O   0  0  0  0  0  0  0  0  0  0  0  0
   68.6930   98.1230   28.8510 O   0  0  0  0  0  0  0  0  0  0  0  0
   69.2820   97.6410   31.1760 C   0  0  0  0  0  0  0  0  0  0  0  0
   69.9250   96.5740   30.4450 O   0  0  0  0  0  0  0  0  0  0  0  0
   69.1520  100.7210   27.3150 C   0  0  0  0  0  0  0  0  0  0  0  0
   68.0410  100.3530   28.1590 O   0  0  0  0  0  0  0  0  0  0  0  0
  2  1  1  6  0  0  0
  2 10  1  0  0  0  0
  2  3  1  0  0  0  0
  3  4  1  0  0  0  0
  3  7  1  6  0  0  0
  4  5  1  0  0  0  0
  4  8  1  1  0  0  0
  5  9  1  6  0  0  0
  5  6  1  0  0  0  0
  6 11  1  6  0  0  0
  6 10  1  0  0  0  0
 11 12  1  0  0  0  0
 13 24  1  1  0  0  0
 13 14  1  0  0  0  0
 13 20  1  0  0  0  0
 14 18  1  1  0  0  0
 14 15  1  0  0  0  0
 15  1  1  1  0  0  0
 15 16  1  0  0  0  0
 16 17  1  0  0  0  0
 16 19  1  1  0  0  0
 17 20  1  0  0  0  0
 17 21  1  1  0  0  0
 21 22  1  0  0  0  0
 23 24  1  0  0  0  0
M  END
>  <MODEL>
      19

>  <COMPND>
    UNNAMED

>  <AUTHOR>
    GENERATED BY OPEN BABEL 2.4.90

>  <MASTER>
        0    0    0    0    0    0    0    0   24    0   24    0

