__4czs_A_rec_1gic_gyp_lig_docked.pdb
 OpenBabel10181910473D

 13 13  0  0  1  0  0  0  0  0999 V2000
   62.9910   99.7900   30.0850 C   0  0  2  0  0  0  0  0  0  0  0  0
   61.9740   98.7150   30.4340 C   0  0  1  0  0  0  0  0  0  0  0  0
   61.8270   97.6900   29.3410 C   0  0  2  0  0  0  0  0  0  0  0  0
   61.5520   98.3730   28.0290 C   0  0  1  0  0  0  0  0  0  0  0  0
   62.6100   99.4380   27.7170 C   0  0  2  0  0  0  0  0  0  0  0  0
   62.4040   98.0330   31.5780 O   0  0  0  0  0  0  0  0  0  0  0  0
   60.7710   96.8350   29.6820 O   0  0  0  0  0  0  0  0  0  0  0  0
   61.5920   97.3660   27.0710 O   0  0  0  0  0  0  0  0  0  0  0  0
   62.7080  100.3700   28.7970 O   0  0  0  0  0  0  0  0  0  0  0  0
   62.2550  100.2340   26.4850 C   0  0  0  0  0  0  0  0  0  0  0  0
   61.7270  101.4940   26.8610 O   0  0  0  0  0  0  0  0  0  0  0  0
   65.6910   99.4250   29.9120 C   0  0  0  0  0  0  0  0  0  0  0  0
   64.3150   99.1930   30.0820 O   0  0  0  0  0  0  0  0  0  0  0  0
  1  9  1  0  0  0  0
  1 13  1  6  0  0  0
  1  2  1  0  0  0  0
  2  3  1  0  0  0  0
  2  6  1  1  0  0  0
  3  4  1  0  0  0  0
  3  7  1  1  0  0  0
  4  8  1  6  0  0  0
  4  5  1  0  0  0  0
  5 10  1  6  0  0  0
  5  9  1  0  0  0  0
 10 11  1  0  0  0  0
 12 13  1  0  0  0  0
M  END
>  <MODEL>
       1

>  <COMPND>
    UNNAMED

>  <AUTHOR>
    GENERATED BY OPEN BABEL 2.4.90

>  <MASTER>
        0    0    0    0    0    0    0    0   13    0   13    0

