__4czs_A_rec_2d7f_mma_lig_docked.pdb
 OpenBabel10181910473D

 13 13  0  0  1  0  0  0  0  0999 V2000
   63.7010   99.4490   29.4500 C   0  0  1  0  0  0  0  0  0  0  0  0
   62.5270   99.0570   30.3860 C   0  0  2  0  0  0  0  0  0  0  0  0
   61.7270   98.0210   29.4700 C   0  0  2  0  0  0  0  0  0  0  0  0
   61.5520   98.6020   27.9990 C   0  0  1  0  0  0  0  0  0  0  0  0
   62.6400   99.6210   27.5330 C   0  0  2  0  0  0  0  0  0  0  0  0
   61.7340  100.2040   30.7560 O   0  0  0  0  0  0  0  0  0  0  0  0
   60.5550   97.3830   30.0950 O   0  0  0  0  0  0  0  0  0  0  0  0
   61.5480   97.5820   27.0490 O   0  0  0  0  0  0  0  0  0  0  0  0
   63.0940  100.4160   28.6080 O   0  0  0  0  0  0  0  0  0  0  0  0
   62.3550  100.6200   26.4180 C   0  0  0  0  0  0  0  0  0  0  0  0
   61.3060  101.4300   26.8080 O   0  0  0  0  0  0  0  0  0  0  0  0
   65.9900   98.8160   30.1660 C   0  0  0  0  0  0  0  0  0  0  0  0
   64.9860   99.8380   29.9180 O   0  0  0  0  0  0  0  0  0  0  0  0
  1  9  1  0  0  0  0
  1 13  1  1  0  0  0
  1  2  1  0  0  0  0
  2  3  1  0  0  0  0
  2  6  1  6  0  0  0
  3  4  1  0  0  0  0
  3  7  1  1  0  0  0
  4  8  1  6  0  0  0
  4  5  1  0  0  0  0
  5 10  1  6  0  0  0
  5  9  1  0  0  0  0
 10 11  1  0  0  0  0
 12 13  1  0  0  0  0
M  END
>  <MODEL>
       1

>  <COMPND>
    UNNAMED

>  <AUTHOR>
    GENERATED BY OPEN BABEL 2.4.90

>  <MASTER>
        0    0    0    0    0    0    0    0   13    0   13    0

