__4h55_A_rec_5cna_mma_lig_docked.pdb
 OpenBabel10181912103D

 13 13  0  0  1  0  0  0  0  0999 V2000
   63.2330   99.6420   30.0820 C   0  0  2  0  0  0  0  0  0  0  0  0
   61.9980   98.7560   30.4030 C   0  0  2  0  0  0  0  0  0  0  0  0
   61.7590   97.8850   29.2440 C   0  0  2  0  0  0  0  0  0  0  0  0
   61.5520   98.7010   27.9840 C   0  0  1  0  0  0  0  0  0  0  0  0
   62.7700   99.5540   27.7210 C   0  0  2  0  0  0  0  0  0  0  0  0
   60.8400   99.4740   30.6960 O   0  0  0  0  0  0  0  0  0  0  0  0
   60.6260   97.1030   29.4660 O   0  0  0  0  0  0  0  0  0  0  0  0
   61.3820   97.7490   26.9550 O   0  0  0  0  0  0  0  0  0  0  0  0
   62.9930  100.3990   28.8670 O   0  0  0  0  0  0  0  0  0  0  0  0
   62.5040  100.4440   26.4920 C   0  0  0  0  0  0  0  0  0  0  0  0
   61.3690  101.2640   26.7310 O   0  0  0  0  0  0  0  0  0  0  0  0
   65.0170   98.5280   31.1080 C   0  0  0  0  0  0  0  0  0  0  0  0
   64.3550   98.7520   29.8930 O   0  0  0  0  0  0  0  0  0  0  0  0
  1  9  1  0  0  0  0
  1 13  1  6  0  0  0
  1  2  1  0  0  0  0
  2  3  1  0  0  0  0
  2  6  1  6  0  0  0
  3  4  1  0  0  0  0
  3  7  1  1  0  0  0
  4  8  1  6  0  0  0
  4  5  1  0  0  0  0
  5 10  1  6  0  0  0
  5  9  1  0  0  0  0
 10 11  1  0  0  0  0
 12 13  1  0  0  0  0
M  END
>  <MODEL>
       1

>  <COMPND>
    UNNAMED

>  <AUTHOR>
    GENERATED BY OPEN BABEL 2.4.90

>  <MASTER>
        0    0    0    0    0    0    0    0   13    0   13    0

