__4k1y_A_rec_1gic_gyp_lig_docked.pdb
 OpenBabel10181910553D

 13 13  0  0  1  0  0  0  0  0999 V2000
   63.4950   99.5960   30.4210 C   0  0  2  0  0  0  0  0  0  0  0  0
   62.1860   98.8670   30.6860 C   0  0  1  0  0  0  0  0  0  0  0  0
   61.7980   97.9570   29.5510 C   0  0  2  0  0  0  0  0  0  0  0  0
   61.8090   98.7180   28.2540 C   0  0  1  0  0  0  0  0  0  0  0  0
   63.1520   99.4230   28.0270 C   0  0  2  0  0  0  0  0  0  0  0  0
   62.3320   98.0650   31.8230 O   0  0  0  0  0  0  0  0  0  0  0  0
   60.5180   97.4510   29.8150 O   0  0  0  0  0  0  0  0  0  0  0  0
   61.5980   97.7660   27.2640 O   0  0  0  0  0  0  0  0  0  0  0  0
   63.4670  100.2600   29.1430 O   0  0  0  0  0  0  0  0  0  0  0  0
   63.1170  100.3140   26.8100 C   0  0  0  0  0  0  0  0  0  0  0  0
   61.8420  100.9220   26.6950 O   0  0  0  0  0  0  0  0  0  0  0  0
   65.9580   98.4280   30.2790 C   0  0  0  0  0  0  0  0  0  0  0  0
   64.5780   98.6290   30.4560 O   0  0  0  0  0  0  0  0  0  0  0  0
  1  9  1  0  0  0  0
  1 13  1  6  0  0  0
  1  2  1  0  0  0  0
  2  3  1  0  0  0  0
  2  6  1  1  0  0  0
  3  4  1  0  0  0  0
  3  7  1  1  0  0  0
  4  8  1  6  0  0  0
  4  5  1  0  0  0  0
  5 10  1  6  0  0  0
  5  9  1  0  0  0  0
 10 11  1  0  0  0  0
 12 13  1  0  0  0  0
M  END
>  <MODEL>
       1

>  <COMPND>
    UNNAMED

>  <AUTHOR>
    GENERATED BY OPEN BABEL 2.4.90

>  <MASTER>
        0    0    0    0    0    0    0    0   13    0   13    0

