__4k1y_A_rec_4k1y_mdm_lig_docked.pdb
 OpenBabel10181912213D

 24 25  0  0  1  0  0  0  0  0999 V2000
   64.9260   98.6360   29.9780 O   0  0  0  0  0  0  0  0  0  0  0  0
   63.8860   99.6120   30.0930 C   0  0  2  0  0  0  0  0  0  0  0  0
   62.6520   98.8990   30.6150 C   0  0  2  0  0  0  0  0  0  0  0  0
   62.2140   97.8710   29.5820 C   0  0  2  0  0  0  0  0  0  0  0  0
   61.9020   98.6160   28.2850 C   0  0  1  0  0  0  0  0  0  0  0  0
   63.1460   99.3200   27.8300 C   0  0  2  0  0  0  0  0  0  0  0  0
   61.5580   99.8060   30.7700 O   0  0  0  0  0  0  0  0  0  0  0  0
   61.0530   97.1730   30.0380 O   0  0  0  0  0  0  0  0  0  0  0  0
   61.5180   97.6930   27.2380 O   0  0  0  0  0  0  0  0  0  0  0  0
   63.5780  100.2510   28.8270 O   0  0  0  0  0  0  0  0  0  0  0  0
   62.8560  100.0790   26.5390 C   0  0  0  0  0  0  0  0  0  0  0  0
   62.3860  101.3860   26.8510 O   0  0  0  0  0  0  0  0  0  0  0  0
   68.2510  100.0070   28.8370 C   0  0  2  0  0  0  0  0  0  0  0  0
   66.8360   99.4610   28.6750 C   0  0  2  0  0  0  0  0  0  0  0  0
   66.2820   99.1700   30.0390 C   0  0  2  0  0  0  0  0  0  0  0  0
   67.1660   98.1750   30.7110 C   0  0  1  0  0  0  0  0  0  0  0  0
   68.6030   98.6980   30.7980 C   0  0  2  0  0  0  0  0  0  0  0  0
   66.8560   98.3440   27.7540 O   0  0  0  0  0  0  0  0  0  0  0  0
   66.5520   97.8800   32.0060 O   0  0  0  0  0  0  0  0  0  0  0  0
   69.1270   98.9670   29.4530 O   0  0  0  0  0  0  0  0  0  0  0  0
   69.4980   97.6150   31.4570 C   0  0  0  0  0  0  0  0  0  0  0  0
   69.3680   97.6420   32.8950 O   0  0  0  0  0  0  0  0  0  0  0  0
   68.3410  102.3090   28.6680 C   0  0  0  0  0  0  0  0  0  0  0  0
   68.2340  101.2160   29.6050 O   0  0  0  0  0  0  0  0  0  0  0  0
  2  1  1  6  0  0  0
  2 10  1  0  0  0  0
  2  3  1  0  0  0  0
  3  4  1  0  0  0  0
  3  7  1  6  0  0  0
  4  5  1  0  0  0  0
  4  8  1  1  0  0  0
  5  9  1  6  0  0  0
  5  6  1  0  0  0  0
  6 11  1  6  0  0  0
  6 10  1  0  0  0  0
 11 12  1  0  0  0  0
 13 24  1  1  0  0  0
 13 14  1  0  0  0  0
 13 20  1  0  0  0  0
 14 18  1  6  0  0  0
 14 15  1  0  0  0  0
 15  1  1  6  0  0  0
 15 16  1  0  0  0  0
 16 17  1  0  0  0  0
 16 19  1  1  0  0  0
 17 20  1  0  0  0  0
 17 21  1  6  0  0  0
 21 22  1  0  0  0  0
 23 24  1  0  0  0  0
M  END
>  <MODEL>
      13

>  <COMPND>
    UNNAMED

>  <AUTHOR>
    GENERATED BY OPEN BABEL 2.4.90

>  <MASTER>
        0    0    0    0    0    0    0    0   24    0   24    0

