__4k1y_A_rec_4k1y_mdm_lig_min.pdb
 OpenBabel10181910363D

 24 25  0  0  1  0  0  0  0  0999 V2000
   64.6730   98.6230   30.2890 O   0  0  0  0  0  0  0  0  0  0  0  0
   63.6640   99.6370   30.3040 C   0  0  2  0  0  0  0  0  0  0  0  0
   62.3610   98.9730   30.7130 C   0  0  2  0  0  0  0  0  0  0  0  0
   61.9830   97.9530   29.6510 C   0  0  2  0  0  0  0  0  0  0  0  0
   61.8170   98.6970   28.3260 C   0  0  1  0  0  0  0  0  0  0  0  0
   63.1230   99.3520   27.9830 C   0  0  2  0  0  0  0  0  0  0  0  0
   61.2920   99.9200   30.7630 O   0  0  0  0  0  0  0  0  0  0  0  0
   60.7590   97.3010   30.0010 O   0  0  0  0  0  0  0  0  0  0  0  0
   61.4980   97.7790   27.2540 O   0  0  0  0  0  0  0  0  0  0  0  0
   63.4960  100.2750   29.0110 O   0  0  0  0  0  0  0  0  0  0  0  0
   62.9800  100.1100   26.6670 C   0  0  0  0  0  0  0  0  0  0  0  0
   61.8220  100.9360   26.7170 O   0  0  0  0  0  0  0  0  0  0  0  0
   67.8600   99.0480   28.3150 C   0  0  2  0  0  0  0  0  0  0  0  0
   66.4630   98.5150   28.6120 C   0  0  2  0  0  0  0  0  0  0  0  0
   66.0060   99.0860   29.9220 C   0  0  2  0  0  0  0  0  0  0  0  0
   66.9710   98.6770   30.9830 C   0  0  1  0  0  0  0  0  0  0  0  0
   68.3880   99.1470   30.6370 C   0  0  2  0  0  0  0  0  0  0  0  0
   66.4720   97.0700   28.5250 O   0  0  0  0  0  0  0  0  0  0  0  0
   66.4520   99.2040   32.2450 O   0  0  0  0  0  0  0  0  0  0  0  0
   68.8150   98.5690   29.3560 O   0  0  0  0  0  0  0  0  0  0  0  0
   69.3660   98.6580   31.7380 C   0  0  0  0  0  0  0  0  0  0  0  0
   69.3340   97.2190   31.8550 O   0  0  0  0  0  0  0  0  0  0  0  0
   68.8880  100.8530   27.3060 C   0  0  0  0  0  0  0  0  0  0  0  0
   67.8400  100.4770   28.2230 O   0  0  0  0  0  0  0  0  0  0  0  0
  2  1  1  6  0  0  0
  2 10  1  0  0  0  0
  2  3  1  0  0  0  0
  3  4  1  0  0  0  0
  3  7  1  6  0  0  0
  4  5  1  0  0  0  0
  4  8  1  1  0  0  0
  5  9  1  6  0  0  0
  5  6  1  0  0  0  0
  6 11  1  6  0  0  0
  6 10  1  0  0  0  0
 11 12  1  0  0  0  0
 13 24  1  1  0  0  0
 13 14  1  0  0  0  0
 13 20  1  0  0  0  0
 14 18  1  1  0  0  0
 14 15  1  0  0  0  0
 15  1  1  1  0  0  0
 15 16  1  0  0  0  0
 16 17  1  0  0  0  0
 16 19  1  1  0  0  0
 17 20  1  0  0  0  0
 17 21  1  1  0  0  0
 21 22  1  0  0  0  0
 23 24  1  0  0  0  0
M  END
>  <COMPND>
    UNNAMED

>  <AUTHOR>
    GENERATED BY OPEN BABEL 2.4.90

>  <MASTER>
        0    0    0    0    0    0    0    0   24    0   24    0

