__4k1y_A_rec_5u3e_mma_lig_min.pdb
 OpenBabel10181910343D

 13 13  0  0  1  0  0  0  0  0999 V2000
   63.6420   99.6550   30.3620 C   0  0  2  0  0  0  0  0  0  0  0  0
   62.3290   98.9640   30.7210 C   0  0  2  0  0  0  0  0  0  0  0  0
   61.8380   98.0890   29.6250 C   0  0  2  0  0  0  0  0  0  0  0  0
   61.8350   98.7790   28.2890 C   0  0  1  0  0  0  0  0  0  0  0  0
   63.1740   99.4530   27.9590 C   0  0  2  0  0  0  0  0  0  0  0  0
   61.3330   99.9520   31.0500 O   0  0  0  0  0  0  0  0  0  0  0  0
   60.4850   97.6530   29.9440 O   0  0  0  0  0  0  0  0  0  0  0  0
   61.5580   97.7970   27.3010 O   0  0  0  0  0  0  0  0  0  0  0  0
   63.5740  100.3640   29.0460 O   0  0  0  0  0  0  0  0  0  0  0  0
   63.0730  100.2390   26.6820 C   0  0  0  0  0  0  0  0  0  0  0  0
   61.8530  100.9360   26.6630 O   0  0  0  0  0  0  0  0  0  0  0  0
   65.9160   99.1840   30.5550 C   0  0  0  0  0  0  0  0  0  0  0  0
   64.6290   98.7100   30.2730 O   0  0  0  0  0  0  0  0  0  0  0  0
  1  9  1  0  0  0  0
  1 13  1  6  0  0  0
  1  2  1  0  0  0  0
  2  3  1  0  0  0  0
  2  6  1  6  0  0  0
  3  4  1  0  0  0  0
  3  7  1  1  0  0  0
  4  8  1  6  0  0  0
  4  5  1  0  0  0  0
  5 10  1  6  0  0  0
  5  9  1  0  0  0  0
 10 11  1  0  0  0  0
 12 13  1  0  0  0  0
M  END
>  <COMPND>
    UNNAMED

>  <AUTHOR>
    GENERATED BY OPEN BABEL 2.4.90

>  <MASTER>
        0    0    0    0    0    0    0    0   13    0   13    0

