__4p9x_A_rec_1cjp_mug_lig_docked.pdb
 OpenBabel10181912193D

 24 26  0  0  1  0  0  0  0  0999 V2000
   63.9330   99.0020   29.7540 C   0  0  2  0  0  0  0  0  0  0  0  0
   62.6500   98.4050   30.3070 C   0  0  2  0  0  0  0  0  0  0  0  0
   62.9520   97.5060   31.3610 O   0  0  0  0  0  0  0  0  0  0  0  0
   61.9450   97.6520   29.1910 C   0  0  1  0  0  0  0  0  0  0  0  0
   60.7120   97.1160   29.6570 O   0  0  0  0  0  0  0  0  0  0  0  0
   61.6840   98.5640   28.0070 C   0  0  2  0  0  0  0  0  0  0  0  0
   61.2390   97.7580   26.9330 O   0  0  0  0  0  0  0  0  0  0  0  0
   62.9480   99.3330   27.5800 C   0  0  2  0  0  0  0  0  0  0  0  0
   63.6030   99.9220   28.7260 O   0  0  0  0  0  0  0  0  0  0  0  0
   62.6130  100.4820   26.6450 C   0  0  0  0  0  0  0  0  0  0  0  0
   61.3570  101.0580   26.9830 O   0  0  0  0  0  0  0  0  0  0  0  0
   64.7170   97.9480   29.2830 O   0  0  0  0  0  0  0  0  0  0  0  0
   69.0430  100.3080   28.6740 O   0  0  0  0  0  0  0  0  0  0  0  0
   70.2850  100.3180   28.0020 C   0  0  0  0  0  0  0  0  0  0  0  0
   71.0670  101.1840   28.1740 O   0  0  0  0  0  0  0  0  0  0  0  0
   70.6500   99.3430   27.1110 C   0  0  0  0  0  0  0  0  0  0  0  0
   69.7900   98.3110   26.8510 C   0  0  0  0  0  0  0  0  0  0  0  0
   70.2480   97.2390   25.8820 C   0  0  0  0  0  0  0  0  0  0  0  0
   68.5350   98.2560   27.4860 C   0  0  0  0  0  0  0  0  0  0  0  0
   67.6590   97.2160   27.1990 C   0  0  0  0  0  0  0  0  0  0  0  0
   66.4230   97.1650   27.8180 C   0  0  0  0  0  0  0  0  0  0  0  0
   66.0260   98.1330   28.7330 C   0  0  0  0  0  0  0  0  0  0  0  0
   66.8930   99.1830   29.0320 C   0  0  0  0  0  0  0  0  0  0  0  0
   68.1510   99.2540   28.4140 C   0  0  0  0  0  0  0  0  0  0  0  0
  1  9  1  0  0  0  0
  1 12  1  6  0  0  0
  1  2  1  0  0  0  0
  2  4  1  0  0  0  0
  2  3  1  1  0  0  0
  4  6  1  0  0  0  0
  4  5  1  1  0  0  0
  6  7  1  6  0  0  0
  6  8  1  0  0  0  0
  8 10  1  6  0  0  0
  8  9  1  0  0  0  0
 10 11  1  0  0  0  0
 12 22  1  0  0  0  0
 13 14  1  0  0  0  0
 13 24  1  0  0  0  0
 14 16  1  0  0  0  0
 14 15  2  0  0  0  0
 16 17  2  0  0  0  0
 17 18  1  0  0  0  0
 17 19  1  0  0  0  0
 19 20  2  0  0  0  0
 19 24  1  0  0  0  0
 20 21  1  0  0  0  0
 21 22  2  0  0  0  0
 22 23  1  0  0  0  0
 23 24  2  0  0  0  0
M  END
>  <MODEL>
       8

>  <COMPND>
    UNNAMED

>  <AUTHOR>
    GENERATED BY OPEN BABEL 2.4.90

>  <MASTER>
        0    0    0    0    0    0    0    0   24    0   24    0

