__5cna_A_rec_4k21_xmm_lig_docked.pdb
 OpenBabel10181911523D

 23 25  0  0  1  0  0  0  0  0999 V2000
   61.2990   99.8180   30.7240 O   0  0  0  0  0  0  0  0  0  0  0  0
   62.3950   98.9540   30.3780 C   0  0  1  0  0  0  0  0  0  0  0  0
   61.9830   97.9940   29.3840 C   0  0  1  0  0  0  0  0  0  0  0  0
   60.8400   97.2360   29.7830 O   0  0  0  0  0  0  0  0  0  0  0  0
   61.7730   98.6340   28.0590 C   0  0  2  0  0  0  0  0  0  0  0  0
   61.5070   97.6990   27.0260 O   0  0  0  0  0  0  0  0  0  0  0  0
   62.8220   99.5780   27.6910 C   0  0  2  0  0  0  0  0  0  0  0  0
   63.2110  100.4040   28.7370 O   0  0  0  0  0  0  0  0  0  0  0  0
   63.5150   99.7180   29.9410 C   0  0  2  0  0  0  0  0  0  0  0  0
   62.4580  100.4230   26.4680 C   0  0  0  0  0  0  0  0  0  0  0  0
   61.6690  101.5520   26.8030 O   0  0  0  0  0  0  0  0  0  0  0  0
   64.6640   98.8800   29.7870 O   0  0  0  0  0  0  0  0  0  0  0  0
   65.8960   99.6050   29.7100 C   0  0  0  0  0  0  0  0  0  0  0  0
   66.7440   99.8520   30.7360 C   0  0  1  0  0  0  0  0  0  0  0  0
   67.9510  100.4780   30.1630 C   0  0  0  0  0  0  0  0  0  0  0  0
   67.8280  100.4780   28.7870 N   0  0  0  0  0  0  0  0  0  0  0  0
   66.5660  100.0160   28.4400 C   0  0  0  0  0  0  0  0  0  0  0  0
   66.6540   99.6460   32.1750 C   0  0  0  0  0  0  0  0  0  0  0  0
   65.2180   98.8700   32.8880 Cl  0  0  0  0  0  0  0  0  0  0  0  0
   67.7330  100.0190   32.9850 C   0  0  0  0  0  0  0  0  0  0  0  0
   67.5780   99.7490   34.8760 Br  0  0  0  0  0  0  0  0  0  0  0  0
   68.9450  100.6540   32.4290 C   0  0  0  0  0  0  0  0  0  0  0  0
   69.0340  100.8640   30.9970 C   0  0  0  0  0  0  0  0  0  0  0  0
  2  1  1  6  0  0  0
  2  3  1  0  0  0  0
  2  9  1  0  0  0  0
  3  5  1  0  0  0  0
  3  4  1  1  0  0  0
  5  6  1  6  0  0  0
  5  7  1  0  0  0  0
  7 10  1  6  0  0  0
  7  8  1  0  0  0  0
  8  9  1  0  0  0  0
  9 12  1  6  0  0  0
 10 11  1  0  0  0  0
 12 13  1  0  0  0  0
 13 17  2  0  0  0  0
 14 13  1  1  0  0  0
 14 15  1  0  0  0  0
 14 18  1  0  0  0  0
 15 16  2  0  0  0  0
 15 23  1  0  0  0  0
 16 17  1  0  0  0  0
 18 20  2  0  0  0  0
 18 19  1  0  0  0  0
 20 22  1  0  0  0  0
 20 21  1  0  0  0  0
 22 23  2  0  0  0  0
M  END
>  <MODEL>
      12

>  <COMPND>
    UNNAMED

>  <AUTHOR>
    GENERATED BY OPEN BABEL 2.4.90

>  <MASTER>
        0    0    0    0    0    0    0    0   23    0   23    0

