__1aa4_A_rec_1cci_dmi_lig_docked.pdb
 OpenBabel10181920073D

  7  7  0  0  0  0  0  0  0  0999 V2000
  -21.9850   30.3060   -2.6320 N   0  0  0  0  0  0  0  0  0  0  0  0
  -22.3980   31.1610   -3.5440 C   0  0  0  0  0  0  0  0  0  0  0  0
  -22.4710   32.6270   -3.3760 C   0  0  0  0  0  0  0  0  0  0  0  0
  -22.6740   30.4330   -4.6210 N   0  0  0  0  0  0  0  0  0  0  0  0
  -23.1480   30.9670   -5.9360 C   0  0  0  0  0  0  0  0  0  0  0  0
  -22.4740   29.1600   -4.4180 C   0  0  0  0  0  0  0  0  0  0  0  0
  -22.0230   29.0810   -3.1130 C   0  0  0  0  0  0  0  0  0  0  0  0
  1  2  2  0  0  0  0
  1  7  1  0  0  0  0
  2  4  1  0  0  0  0
  2  3  1  0  0  0  0
  4  5  1  0  0  0  0
  4  6  1  0  0  0  0
  6  7  2  0  0  0  0
M  END
>  <MODEL>
       4

>  <COMPND>
    UNNAMED

>  <AUTHOR>
    GENERATED BY OPEN BABEL 2.4.90

>  <MASTER>
        0    0    0    0    0    0    0    0    7    0    7    0

