__1aa4_A_rec_1aev_amt_lig_min.pdb
 OpenBabel10181910373D

  6  6  0  0  0  0  0  0  0  0999 V2000
  -22.0860   29.1530   -4.9740 S   0  0  0  0  0  0  0  0  0  0  0  0
  -22.7060   30.7010   -5.3910 C   0  0  0  0  0  0  0  0  0  0  0  0
  -22.9580   31.5420   -4.4170 N   0  0  0  0  0  0  0  0  0  0  0  0
  -22.6730   31.0130   -3.2560 C   0  0  0  0  0  0  0  0  0  0  0  0
  -22.1910   29.7130   -3.3830 C   0  0  0  0  0  0  0  0  0  0  0  0
  -22.9210   31.0150   -6.7020 N   0  0  0  0  0  0  0  0  0  0  0  0
  1  2  1  0  0  0  0
  1  5  1  0  0  0  0
  2  6  1  0  0  0  0
  2  3  2  0  0  0  0
  3  4  1  0  0  0  0
  4  5  2  0  0  0  0
M  END
>  <COMPND>
    UNNAMED

>  <AUTHOR>
    GENERATED BY OPEN BABEL 2.4.90

>  <MASTER>
        0    0    0    0    0    0    0    0    6    0    6    0

