__1aa4_A_rec_1ac8_tmz_lig_docked.pdb
 OpenBabel10181920093D

  8  8  0  0  0  0  0  0  0  0999 V2000
  -22.0190   28.4650   -3.2810 S   0  0  0  0  0  0  0  0  0  0  0  0
  -22.3610   30.1150   -2.7990 C   0  0  0  0  0  0  0  0  0  0  0  0
  -22.6820   30.8600   -3.8740 N   0  0  0  0  0  0  0  0  0  0  0  0
  -22.6670   30.1080   -5.0740 C   0  0  0  0  0  0  0  0  0  0  0  0
  -22.2690   28.7930   -4.9340 C   0  0  0  0  0  0  0  0  0  0  0  0
  -22.9550   32.1780   -3.8080 C   0  0  0  0  0  0  0  0  0  0  0  0
  -22.9230   30.8570   -6.3290 C   0  0  0  0  0  0  0  0  0  0  0  0
  -22.1930   27.6770   -5.9470 C   0  0  0  0  0  0  0  0  0  0  0  0
  1  5  1  0  0  0  0
  1  2  1  0  0  0  0
  2  3  1  0  0  0  0
  3  4  1  0  0  0  0
  3  6  1  0  0  0  0
  4  7  1  0  0  0  0
  4  5  2  0  0  0  0
  5  8  1  0  0  0  0
M  END
>  <MODEL>
      13

>  <COMPND>
    UNNAMED

>  <AUTHOR>
    GENERATED BY OPEN BABEL 2.4.90

>  <MASTER>
        0    0    0    0    0    0    0    0    8    0    8    0

