__1aa4_A_rec_1aeh_24t_lig_min.pdb
 OpenBabel10181913213D

  7  7  0  0  0  0  0  0  0  0999 V2000
  -22.0630   28.2480   -3.5510 S   0  0  0  0  0  0  0  0  0  0  0  0
  -22.1430   28.9510   -5.1330 C   0  0  0  0  0  0  0  0  0  0  0  0
  -22.3020   30.2820   -5.0520 N   0  0  0  0  0  0  0  0  0  0  0  0
  -22.3690   30.8140   -3.7480 C   0  0  0  0  0  0  0  0  0  0  0  0
  -22.2550   29.8370   -2.8260 C   0  0  0  0  0  0  0  0  0  0  0  0
  -22.0590   28.2660   -6.2750 N   0  0  0  0  0  0  0  0  0  0  0  0
  -22.5440   32.2870   -3.5610 C   0  0  0  0  0  0  0  0  0  0  0  0
  1  2  1  0  0  0  0
  1  5  1  0  0  0  0
  2  6  1  0  0  0  0
  2  3  2  0  0  0  0
  3  4  1  0  0  0  0
  4  7  1  0  0  0  0
  4  5  2  0  0  0  0
M  END
>  <COMPND>
    UNNAMED

>  <AUTHOR>
    GENERATED BY OPEN BABEL 2.4.90

>  <MASTER>
        0    0    0    0    0    0    0    0    7    0    7    0

