__1aa4_A_rec_1aet_1mz_lig_docked.pdb
 OpenBabel10181920183D

  6  6  0  0  0  0  0  0  0  0999 V2000
  -22.5360   29.9010   -4.4900 N   0  0  0  0  0  0  0  0  0  0  0  0
  -22.0640   30.2210   -3.3060 C   0  0  0  0  0  0  0  0  0  0  0  0
  -22.4260   31.4560   -3.0440 N   0  0  0  0  0  0  0  0  0  0  0  0
  -23.0880   31.9500   -4.0610 C   0  0  0  0  0  0  0  0  0  0  0  0
  -23.1780   30.9230   -5.0060 C   0  0  0  0  0  0  0  0  0  0  0  0
  -22.3520   28.5710   -5.1910 C   0  0  0  0  0  0  0  0  0  0  0  0
  1  6  1  0  0  0  0
  1  5  1  0  0  0  0
  1  2  1  0  0  0  0
  2  3  2  0  0  0  0
  3  4  1  0  0  0  0
  4  5  2  0  0  0  0
M  END
>  <MODEL>
       2

>  <COMPND>
    UNNAMED

>  <AUTHOR>
    GENERATED BY OPEN BABEL 2.4.90

>  <MASTER>
        0    0    0    0    0    0    0    0    6    0    6    0

