__1aa4_A_rec_1ac4_tmt_lig_min.pdb
 OpenBabel10181913013D

  8  8  0  0  1  0  0  0  0  0999 V2000
  -22.0170   28.3700   -3.2620 S   0  0  0  0  0  0  0  0  0  0  0  0
  -22.2760   28.7950   -4.8960 C   0  0  2  0  0  0  0  0  0  0  0  0
  -22.5530   30.0990   -5.0170 N   0  0  0  0  0  0  0  0  0  0  0  0
  -22.5660   30.8150   -3.8080 C   0  0  0  0  0  0  0  0  0  0  0  0
  -22.2890   30.0010   -2.7540 C   0  0  0  0  0  0  0  0  0  0  0  0
  -22.2000   27.8140   -6.0200 C   0  0  0  0  0  0  0  0  0  0  0  0
  -22.8190   30.7620   -6.3080 C   0  0  0  0  0  0  0  0  0  0  0  0
  -22.8580   32.2810   -3.7740 C   0  0  0  0  0  0  0  0  0  0  0  0
  1  2  1  0  0  0  0
  1  5  1  0  0  0  0
  2  6  1  1  0  0  0
  2  3  1  0  0  0  0
  3  7  1  0  0  0  0
  3  4  1  0  0  0  0
  4  8  1  0  0  0  0
  4  5  2  0  0  0  0
M  END
>  <COMPND>
    UNNAMED

>  <AUTHOR>
    GENERATED BY OPEN BABEL 2.4.90

>  <MASTER>
        0    0    0    0    0    0    0    0    8    0    8    0

