__1ac4_A_rec_1aeb_3mt_lig_docked.pdb
 OpenBabel10181922093D

  6  6  0  0  0  0  0  0  0  0999 V2000
  -22.5210   32.4030   -2.9020 C   0  0  0  0  0  0  0  0  0  0  0  0
  -22.5240   31.2710   -3.8550 N   0  0  0  0  0  0  0  0  0  0  0  0
  -23.1950   31.3190   -5.0680 C   0  0  0  0  0  0  0  0  0  0  0  0
  -23.0610   30.1730   -5.7820 C   0  0  0  0  0  0  0  0  0  0  0  0
  -22.0850   29.0240   -4.9280 S   0  0  0  0  0  0  0  0  0  0  0  0
  -21.8920   30.1210   -3.6460 C   0  0  0  0  0  0  0  0  0  0  0  0
  1  2  1  0  0  0  0
  2  3  1  0  0  0  0
  2  6  1  0  0  0  0
  3  4  2  0  0  0  0
  4  5  1  0  0  0  0
  5  6  1  0  0  0  0
M  END
>  <MODEL>
       6

>  <COMPND>
    UNNAMED

>  <AUTHOR>
    GENERATED BY OPEN BABEL 2.4.90

>  <MASTER>
        0    0    0    0    0    0    0    0    6    0    6    0

