__1ac8_A_rec_1ac8_tmz_lig_docked.pdb
 OpenBabel10181915283D

  8  8  0  0  0  0  0  0  0  0999 V2000
  -22.0100   28.4930   -3.3330 S   0  0  0  0  0  0  0  0  0  0  0  0
  -22.3470   30.1410   -2.8400 C   0  0  0  0  0  0  0  0  0  0  0  0
  -22.6640   30.8940   -3.9100 N   0  0  0  0  0  0  0  0  0  0  0  0
  -22.6510   30.1500   -5.1150 C   0  0  0  0  0  0  0  0  0  0  0  0
  -22.2570   28.8340   -4.9840 C   0  0  0  0  0  0  0  0  0  0  0  0
  -22.9320   32.2130   -3.8360 C   0  0  0  0  0  0  0  0  0  0  0  0
  -22.9030   30.9100   -6.3650 C   0  0  0  0  0  0  0  0  0  0  0  0
  -22.1840   27.7250   -6.0040 C   0  0  0  0  0  0  0  0  0  0  0  0
  1  5  1  0  0  0  0
  1  2  1  0  0  0  0
  2  3  1  0  0  0  0
  3  4  1  0  0  0  0
  3  6  1  0  0  0  0
  4  7  1  0  0  0  0
  4  5  2  0  0  0  0
  5  8  1  0  0  0  0
M  END
>  <MODEL>
       9

>  <COMPND>
    UNNAMED

>  <AUTHOR>
    GENERATED BY OPEN BABEL 2.4.90

>  <MASTER>
        0    0    0    0    0    0    0    0    8    0    8    0

