__1ac8_A_rec_1aef_3ap_lig_min.pdb
 OpenBabel10181901593D

  7  7  0  0  0  0  0  0  0  0999 V2000
  -22.6170   31.3130   -3.1520 N   0  0  0  0  0  0  0  0  0  0  0  0
  -22.8370   31.6960   -4.4280 C   0  0  0  0  0  0  0  0  0  0  0  0
  -22.6570   30.7740   -5.4740 C   0  0  0  0  0  0  0  0  0  0  0  0
  -22.2470   29.4660   -5.1070 C   0  0  0  0  0  0  0  0  0  0  0  0
  -22.0350   29.1310   -3.7790 C   0  0  0  0  0  0  0  0  0  0  0  0
  -22.2260   30.0800   -2.7810 C   0  0  0  0  0  0  0  0  0  0  0  0
  -22.8690   31.1240   -6.7640 N   0  0  0  0  0  0  0  0  0  0  0  0
  1  2  2  0  0  0  0
  1  6  1  0  0  0  0
  2  3  1  0  0  0  0
  3  7  1  0  0  0  0
  3  4  2  0  0  0  0
  4  5  1  0  0  0  0
  5  6  2  0  0  0  0
M  END
>  <COMPND>
    UNNAMED

>  <AUTHOR>
    GENERATED BY OPEN BABEL 2.4.90

>  <MASTER>
        0    0    0    0    0    0    0    0    7    0    7    0

