__1aeb_A_rec_1aeq_2ez_lig_docked.pdb
 OpenBabel10181919013D

  7  7  0  0  0  0  0  0  0  0999 V2000
  -22.3330   29.7050   -2.5820 N   0  0  0  0  0  0  0  0  0  0  0  0
  -22.4030   30.7440   -3.4290 C   0  0  0  0  0  0  0  0  0  0  0  0
  -22.1600   30.2330   -4.6490 N   0  0  0  0  0  0  0  0  0  0  0  0
  -21.9350   28.8660   -4.5740 C   0  0  0  0  0  0  0  0  0  0  0  0
  -22.0430   28.5310   -3.2620 C   0  0  0  0  0  0  0  0  0  0  0  0
  -22.6920   32.1740   -3.0850 C   0  0  0  0  0  0  0  0  0  0  0  0
  -21.5770   33.0740   -3.6480 C   0  0  0  0  0  0  0  0  0  0  0  0
  1  2  2  0  0  0  0
  1  5  1  0  0  0  0
  2  3  1  0  0  0  0
  2  6  1  0  0  0  0
  3  4  2  0  0  0  0
  4  5  1  0  0  0  0
  6  7  1  0  0  0  0
M  END
>  <MODEL>
      13

>  <COMPND>
    UNNAMED

>  <AUTHOR>
    GENERATED BY OPEN BABEL 2.4.90

>  <MASTER>
        0    0    0    0    0    0    0    0    7    0    7    0

