__1aee_A_rec_1aeb_3mt_lig_min.pdb
 OpenBabel10181904573D

  6  6  0  0  0  0  0  0  0  0999 V2000
  -22.6460   32.1460   -3.9180 C   0  0  0  0  0  0  0  0  0  0  0  0
  -22.4910   30.7200   -4.2800 N   0  0  0  0  0  0  0  0  0  0  0  0
  -22.6660   30.2550   -5.5750 C   0  0  0  0  0  0  0  0  0  0  0  0
  -22.4720   28.9160   -5.6780 C   0  0  0  0  0  0  0  0  0  0  0  0
  -22.0670   28.2310   -4.1400 S   0  0  0  0  0  0  0  0  0  0  0  0
  -22.1700   29.7630   -3.4150 C   0  0  0  0  0  0  0  0  0  0  0  0
  1  2  1  0  0  0  0
  2  3  1  0  0  0  0
  2  6  1  0  0  0  0
  3  4  2  0  0  0  0
  4  5  1  0  0  0  0
  5  6  1  0  0  0  0
M  END
>  <COMPND>
    UNNAMED

>  <AUTHOR>
    GENERATED BY OPEN BABEL 2.4.90

>  <MASTER>
        0    0    0    0    0    0    0    0    6    0    6    0

