__1aee_A_rec_1aej_nvi_lig_docked.pdb
 OpenBabel10181919433D

  7  7  0  0  0  0  0  0  0  0999 V2000
  -22.4360   29.8930   -4.4630 N   0  0  0  0  0  0  0  0  0  0  0  0
  -22.0810   29.7990   -3.1750 C   0  0  0  0  0  0  0  0  0  0  0  0
  -22.2140   31.0090   -2.6210 N   0  0  0  0  0  0  0  0  0  0  0  0
  -22.6540   31.9120   -3.5720 C   0  0  0  0  0  0  0  0  0  0  0  0
  -22.7900   31.2110   -4.7300 C   0  0  0  0  0  0  0  0  0  0  0  0
  -22.4490   28.8220   -5.4210 C   0  0  0  0  0  0  0  0  0  0  0  0
  -22.3320   27.5460   -5.0730 C   0  0  0  0  0  0  0  0  0  0  0  0
  1  6  1  0  0  0  0
  1  5  1  0  0  0  0
  1  2  1  0  0  0  0
  2  3  2  0  0  0  0
  3  4  1  0  0  0  0
  4  5  2  0  0  0  0
  6  7  2  0  0  0  0
M  END
>  <MODEL>
       4

>  <COMPND>
    UNNAMED

>  <AUTHOR>
    GENERATED BY OPEN BABEL 2.4.90

>  <MASTER>
        0    0    0    0    0    0    0    0    7    0    7    0

