__1aee_A_rec_1aee_anl_lig_min.pdb
 OpenBabel10181912583D

  7  7  0  0  0  0  0  0  0  0999 V2000
  -22.5290   31.5120   -3.5680 C   0  0  0  0  0  0  0  0  0  0  0  0
  -23.0210   31.5720   -4.8760 C   0  0  0  0  0  0  0  0  0  0  0  0
  -23.0350   30.4320   -5.6460 C   0  0  0  0  0  0  0  0  0  0  0  0
  -22.6130   29.2130   -5.1870 C   0  0  0  0  0  0  0  0  0  0  0  0
  -22.1280   29.1640   -3.8850 C   0  0  0  0  0  0  0  0  0  0  0  0
  -22.0940   30.3000   -3.0870 C   0  0  0  0  0  0  0  0  0  0  0  0
  -22.4910   32.6410   -2.6830 N   0  0  0  0  0  0  0  0  0  0  0  0
  1  2  2  0  0  0  0
  1  6  1  0  0  0  0
  1  7  1  0  0  0  0
  2  3  1  0  0  0  0
  3  4  2  0  0  0  0
  4  5  1  0  0  0  0
  5  6  2  0  0  0  0
M  END
>  <COMPND>
    UNNAMED

>  <AUTHOR>
    GENERATED BY OPEN BABEL 2.4.90

>  <MASTER>
        0    0    0    0    0    0    0    0    7    0    7    0

