__1aee_A_rec_1aee_anl_lig_docked.pdb
 OpenBabel10181919363D

  7  7  0  0  0  0  0  0  0  0999 V2000
  -22.5540   31.4230   -3.4960 C   0  0  0  0  0  0  0  0  0  0  0  0
  -22.1000   30.1790   -3.0490 C   0  0  0  0  0  0  0  0  0  0  0  0
  -22.1330   29.1000   -3.9030 C   0  0  0  0  0  0  0  0  0  0  0  0
  -22.5670   29.1830   -5.1980 C   0  0  0  0  0  0  0  0  0  0  0  0
  -23.0150   30.4260   -5.6330 C   0  0  0  0  0  0  0  0  0  0  0  0
  -23.0020   31.5300   -4.7920 C   0  0  0  0  0  0  0  0  0  0  0  0
  -22.5420   32.6090   -2.6880 N   0  0  0  0  0  0  0  0  0  0  0  0
  1  2  2  0  0  0  0
  1  6  1  0  0  0  0
  1  7  1  0  0  0  0
  2  3  1  0  0  0  0
  3  4  2  0  0  0  0
  4  5  1  0  0  0  0
  5  6  2  0  0  0  0
M  END
>  <MODEL>
       1

>  <COMPND>
    UNNAMED

>  <AUTHOR>
    GENERATED BY OPEN BABEL 2.4.90

>  <MASTER>
        0    0    0    0    0    0    0    0    7    0    7    0

