__1aee_A_rec_1aet_1mz_lig_min.pdb
 OpenBabel10181909333D

  6  6  0  0  0  0  0  0  0  0999 V2000
  -22.4390   30.0740   -4.4720 N   0  0  0  0  0  0  0  0  0  0  0  0
  -22.0770   29.9380   -3.2160 C   0  0  0  0  0  0  0  0  0  0  0  0
  -22.2120   31.1030   -2.6250 N   0  0  0  0  0  0  0  0  0  0  0  0
  -22.6160   31.9970   -3.4930 C   0  0  0  0  0  0  0  0  0  0  0  0
  -22.7850   31.3200   -4.7050 C   0  0  0  0  0  0  0  0  0  0  0  0
  -22.4370   28.9820   -5.5230 C   0  0  0  0  0  0  0  0  0  0  0  0
  1  6  1  0  0  0  0
  1  5  1  0  0  0  0
  1  2  1  0  0  0  0
  2  3  2  0  0  0  0
  3  4  1  0  0  0  0
  4  5  2  0  0  0  0
M  END
>  <COMPND>
    UNNAMED

>  <AUTHOR>
    GENERATED BY OPEN BABEL 2.4.90

>  <MASTER>
        0    0    0    0    0    0    0    0    6    0    6    0

