__1aeo_A_rec_1aeo_2ap_lig_min.pdb
 OpenBabel10181913333D

  7  7  0  0  0  0  0  0  0  0999 V2000
  -21.9110   30.4870   -3.0820 N   0  0  0  0  0  0  0  0  0  0  0  0
  -22.5530   31.6630   -3.3240 C   0  0  0  0  0  0  0  0  0  0  0  0
  -23.2640   31.7760   -4.5420 C   0  0  0  0  0  0  0  0  0  0  0  0
  -23.2830   30.7140   -5.4220 C   0  0  0  0  0  0  0  0  0  0  0  0
  -22.6000   29.5120   -5.1280 C   0  0  0  0  0  0  0  0  0  0  0  0
  -21.9190   29.4250   -3.9470 C   0  0  0  0  0  0  0  0  0  0  0  0
  -22.4870   32.6480   -2.4150 N   0  0  0  0  0  0  0  0  0  0  0  0
  1  6  2  0  0  0  0
  1  2  1  0  0  0  0
  2  3  2  0  0  0  0
  2  7  1  0  0  0  0
  3  4  1  0  0  0  0
  4  5  2  0  0  0  0
  5  6  1  0  0  0  0
M  END
>  <COMPND>
    UNNAMED

>  <AUTHOR>
    GENERATED BY OPEN BABEL 2.4.90

>  <MASTER>
        0    0    0    0    0    0    0    0    7    0    7    0

