__1aet_A_rec_1aej_nvi_lig_min.pdb
 OpenBabel10181910133D

  7  7  0  0  0  0  0  0  0  0999 V2000
  -22.3000   29.7800   -4.0240 N   0  0  0  0  0  0  0  0  0  0  0  0
  -22.1070   30.0280   -2.7220 C   0  0  0  0  0  0  0  0  0  0  0  0
  -22.3770   31.3190   -2.5030 N   0  0  0  0  0  0  0  0  0  0  0  0
  -22.7420   31.9280   -3.6910 C   0  0  0  0  0  0  0  0  0  0  0  0
  -22.6900   30.9600   -4.6470 C   0  0  0  0  0  0  0  0  0  0  0  0
  -22.1310   28.5140   -4.6820 C   0  0  0  0  0  0  0  0  0  0  0  0
  -22.1410   28.3850   -6.0040 C   0  0  0  0  0  0  0  0  0  0  0  0
  1  6  1  0  0  0  0
  1  5  1  0  0  0  0
  1  2  1  0  0  0  0
  2  3  2  0  0  0  0
  3  4  1  0  0  0  0
  4  5  2  0  0  0  0
  6  7  2  0  0  0  0
M  END
>  <COMPND>
    UNNAMED

>  <AUTHOR>
    GENERATED BY OPEN BABEL 2.4.90

>  <MASTER>
        0    0    0    0    0    0    0    0    7    0    7    0

