__1aet_A_rec_1aeg_4ap_lig_min.pdb
 OpenBabel10181913253D

  7  7  0  0  0  0  0  0  0  0999 V2000
  -22.3970   30.5610   -2.3330 N   0  0  0  0  0  0  0  0  0  0  0  0
  -22.7300   31.6350   -3.0990 C   0  0  0  0  0  0  0  0  0  0  0  0
  -22.7730   31.5300   -4.4620 C   0  0  0  0  0  0  0  0  0  0  0  0
  -22.4660   30.2870   -5.0900 C   0  0  0  0  0  0  0  0  0  0  0  0
  -22.1250   29.1910   -4.2450 C   0  0  0  0  0  0  0  0  0  0  0  0
  -22.0990   29.3570   -2.8890 C   0  0  0  0  0  0  0  0  0  0  0  0
  -22.5010   30.1550   -6.4220 N   0  0  0  0  0  0  0  0  0  0  0  0
  1  2  2  0  0  0  0
  1  6  1  0  0  0  0
  2  3  1  0  0  0  0
  3  4  2  0  0  0  0
  4  7  1  0  0  0  0
  4  5  1  0  0  0  0
  5  6  2  0  0  0  0
M  END
>  <COMPND>
    UNNAMED

>  <AUTHOR>
    GENERATED BY OPEN BABEL 2.4.90

>  <MASTER>
        0    0    0    0    0    0    0    0    7    0    7    0

