__1aet_A_rec_1aen_25t_lig_min.pdb
 OpenBabel10181906573D

  7  7  0  0  0  0  0  0  0  0999 V2000
  -22.4730   30.9250   -4.5540 S   0  0  0  0  0  0  0  0  0  0  0  0
  -22.3550   31.3060   -3.2120 C   0  0  0  0  0  0  0  0  0  0  0  0
  -22.0790   30.1590   -2.4580 N   0  0  0  0  0  0  0  0  0  0  0  0
  -22.0240   29.0680   -3.3350 C   0  0  0  0  0  0  0  0  0  0  0  0
  -22.2670   29.5420   -4.6310 C   0  0  0  0  0  0  0  0  0  0  0  0
  -22.5010   32.6800   -2.6820 N   0  0  0  0  0  0  0  0  0  0  0  0
  -22.3030   28.6910   -5.9140 C   0  0  0  0  0  0  0  0  0  0  0  0
  1  5  1  0  0  0  0
  1  2  1  0  0  0  0
  2  6  1  0  0  0  0
  2  3  2  0  0  0  0
  3  4  1  0  0  0  0
  4  5  2  0  0  0  0
  5  7  1  0  0  0  0
M  END
>  <COMPND>
    UNNAMED

>  <AUTHOR>
    GENERATED BY OPEN BABEL 2.4.90

>  <MASTER>
        0    0    0    0    0    0    0    0    7    0    7    0

