__1aet_A_rec_1aeb_3mt_lig_docked.pdb
 OpenBabel10181918163D

  6  6  0  0  0  0  0  0  0  0999 V2000
  -22.5460   32.2360   -3.2200 C   0  0  0  0  0  0  0  0  0  0  0  0
  -22.4940   30.9670   -3.9800 N   0  0  0  0  0  0  0  0  0  0  0  0
  -22.9310   30.8660   -5.2930 C   0  0  0  0  0  0  0  0  0  0  0  0
  -22.7880   29.6130   -5.7930 C   0  0  0  0  0  0  0  0  0  0  0  0
  -22.1010   28.5500   -4.6100 S   0  0  0  0  0  0  0  0  0  0  0  0
  -22.0290   29.8240   -3.4890 C   0  0  0  0  0  0  0  0  0  0  0  0
  1  2  1  0  0  0  0
  2  3  1  0  0  0  0
  2  6  1  0  0  0  0
  3  4  2  0  0  0  0
  4  5  1  0  0  0  0
  5  6  1  0  0  0  0
M  END
>  <MODEL>
      12

>  <COMPND>
    UNNAMED

>  <AUTHOR>
    GENERATED BY OPEN BABEL 2.4.90

>  <MASTER>
        0    0    0    0    0    0    0    0    6    0    6    0

