__1aet_A_rec_1aef_3ap_lig_min.pdb
 OpenBabel10181912233D

  7  7  0  0  0  0  0  0  0  0999 V2000
  -22.5640   31.1760   -3.0210 N   0  0  0  0  0  0  0  0  0  0  0  0
  -22.7900   31.5010   -4.3120 C   0  0  0  0  0  0  0  0  0  0  0  0
  -22.6580   30.5210   -5.3120 C   0  0  0  0  0  0  0  0  0  0  0  0
  -22.2890   29.2200   -4.8840 C   0  0  0  0  0  0  0  0  0  0  0  0
  -22.0690   28.9450   -3.5430 C   0  0  0  0  0  0  0  0  0  0  0  0
  -22.2110   29.9500   -2.5930 C   0  0  0  0  0  0  0  0  0  0  0  0
  -22.8780   30.8130   -6.6150 N   0  0  0  0  0  0  0  0  0  0  0  0
  1  2  2  0  0  0  0
  1  6  1  0  0  0  0
  2  3  1  0  0  0  0
  3  7  1  0  0  0  0
  3  4  2  0  0  0  0
  4  5  1  0  0  0  0
  5  6  2  0  0  0  0
M  END
>  <COMPND>
    UNNAMED

>  <AUTHOR>
    GENERATED BY OPEN BABEL 2.4.90

>  <MASTER>
        0    0    0    0    0    0    0    0    7    0    7    0

