__1aet_A_rec_1aeq_2ez_lig_min.pdb
 OpenBabel10181901403D

  7  7  0  0  0  0  0  0  0  0999 V2000
  -22.1050   29.6670   -3.6630 N   0  0  0  0  0  0  0  0  0  0  0  0
  -22.6730   30.7100   -4.2870 C   0  0  0  0  0  0  0  0  0  0  0  0
  -22.8900   30.3010   -5.5510 N   0  0  0  0  0  0  0  0  0  0  0  0
  -22.4570   28.9940   -5.7250 C   0  0  0  0  0  0  0  0  0  0  0  0
  -21.9570   28.5930   -4.5270 C   0  0  0  0  0  0  0  0  0  0  0  0
  -22.9980   32.0500   -3.7000 C   0  0  0  0  0  0  0  0  0  0  0  0
  -21.6960   32.7640   -3.2970 C   0  0  0  0  0  0  0  0  0  0  0  0
  1  2  2  0  0  0  0
  1  5  1  0  0  0  0
  2  3  1  0  0  0  0
  2  6  1  0  0  0  0
  3  4  2  0  0  0  0
  4  5  1  0  0  0  0
  6  7  1  0  0  0  0
M  END
>  <COMPND>
    UNNAMED

>  <AUTHOR>
    GENERATED BY OPEN BABEL 2.4.90

>  <MASTER>
        0    0    0    0    0    0    0    0    7    0    7    0

