__1aev_A_rec_1aet_1mz_lig_min.pdb
 OpenBabel10181913193D

  6  6  0  0  0  0  0  0  0  0999 V2000
  -22.4370   29.8240   -4.5370 N   0  0  0  0  0  0  0  0  0  0  0  0
  -22.1100   29.8280   -3.2650 C   0  0  0  0  0  0  0  0  0  0  0  0
  -22.2620   31.0510   -2.8100 N   0  0  0  0  0  0  0  0  0  0  0  0
  -22.6400   31.8430   -3.7810 C   0  0  0  0  0  0  0  0  0  0  0  0
  -22.7760   31.0350   -4.9150 C   0  0  0  0  0  0  0  0  0  0  0  0
  -22.4060   28.6230   -5.4610 C   0  0  0  0  0  0  0  0  0  0  0  0
  1  6  1  0  0  0  0
  1  5  1  0  0  0  0
  1  2  1  0  0  0  0
  2  3  2  0  0  0  0
  3  4  1  0  0  0  0
  4  5  2  0  0  0  0
M  END
>  <COMPND>
    UNNAMED

>  <AUTHOR>
    GENERATED BY OPEN BABEL 2.4.90

>  <MASTER>
        0    0    0    0    0    0    0    0    6    0    6    0

