__1aev_A_rec_1aeb_3mt_lig_min.pdb
 OpenBabel10181909093D

  6  6  0  0  0  0  0  0  0  0999 V2000
  -22.4190   32.1320   -3.6060 C   0  0  0  0  0  0  0  0  0  0  0  0
  -22.3650   30.7170   -4.0330 N   0  0  0  0  0  0  0  0  0  0  0  0
  -22.5100   30.3320   -5.3580 C   0  0  0  0  0  0  0  0  0  0  0  0
  -22.4240   28.9880   -5.5210 C   0  0  0  0  0  0  0  0  0  0  0  0
  -22.1600   28.1970   -4.0030 S   0  0  0  0  0  0  0  0  0  0  0  0
  -22.1730   29.6960   -3.2050 C   0  0  0  0  0  0  0  0  0  0  0  0
  1  2  1  0  0  0  0
  2  3  1  0  0  0  0
  2  6  1  0  0  0  0
  3  4  2  0  0  0  0
  4  5  1  0  0  0  0
  5  6  1  0  0  0  0
M  END
>  <COMPND>
    UNNAMED

>  <AUTHOR>
    GENERATED BY OPEN BABEL 2.4.90

>  <MASTER>
        0    0    0    0    0    0    0    0    6    0    6    0

