__1aev_A_rec_1aet_1mz_lig_docked.pdb
 OpenBabel10181915393D

  6  6  0  0  0  0  0  0  0  0999 V2000
  -22.4520   29.4540   -4.5680 N   0  0  0  0  0  0  0  0  0  0  0  0
  -22.1330   29.6730   -3.3120 C   0  0  0  0  0  0  0  0  0  0  0  0
  -22.3280   30.9470   -3.0590 N   0  0  0  0  0  0  0  0  0  0  0  0
  -22.7260   31.5600   -4.1460 C   0  0  0  0  0  0  0  0  0  0  0  0
  -22.8280   30.5770   -5.1350 C   0  0  0  0  0  0  0  0  0  0  0  0
  -22.3760   28.1230   -5.2870 C   0  0  0  0  0  0  0  0  0  0  0  0
  1  6  1  0  0  0  0
  1  5  1  0  0  0  0
  1  2  1  0  0  0  0
  2  3  2  0  0  0  0
  3  4  1  0  0  0  0
  4  5  2  0  0  0  0
M  END
>  <MODEL>
       3

>  <COMPND>
    UNNAMED

>  <AUTHOR>
    GENERATED BY OPEN BABEL 2.4.90

>  <MASTER>
        0    0    0    0    0    0    0    0    6    0    6    0

