__1bem_A_rec_5u5v_7wa_lig_min.pdb
 OpenBabel10181912313D

 10 11  0  0  0  0  0  0  0  0999 V2000
  -21.8660   31.0700   -4.5010 C   0  0  0  0  0  0  0  0  0  0  0  0
  -21.5940   31.3670   -6.9190 N   0  0  0  0  0  0  0  0  0  0  0  0
  -21.6590   30.5530   -5.8040 C   0  0  0  0  0  0  0  0  0  0  0  0
  -21.5440   29.1680   -5.9100 C   0  0  0  0  0  0  0  0  0  0  0  0
  -21.6050   28.3110   -4.7920 C   0  0  0  0  0  0  0  0  0  0  0  0
  -21.7820   28.7830   -3.5230 C   0  0  0  0  0  0  0  0  0  0  0  0
  -21.9040   30.1670   -3.4040 C   0  0  0  0  0  0  0  0  0  0  0  0
  -22.0610   30.9570   -2.2620 N   0  0  0  0  0  0  0  0  0  0  0  0
  -22.1060   32.2700   -2.6920 C   0  0  0  0  0  0  0  0  0  0  0  0
  -21.9900   32.3890   -4.0230 N   0  0  0  0  0  0  0  0  0  0  0  0
  1  3  2  0  0  0  0
  1 10  1  0  0  0  0
  1  7  1  0  0  0  0
  2  3  1  0  0  0  0
  3  4  1  0  0  0  0
  4  5  1  0  0  0  0
  5  6  2  0  0  0  0
  6  7  1  0  0  0  0
  7  8  2  0  0  0  0
  8  9  1  0  0  0  0
  9 10  2  0  0  0  0
M  END
>  <COMPND>
    UNNAMED

>  <AUTHOR>
    GENERATED BY OPEN BABEL 2.4.90

>  <MASTER>
        0    0    0    0    0    0    0    0   10    0   10    0

