__1bem_A_rec_5u5w_7w1_lig_docked.pdb
 OpenBabel10181915153D

 12 13  0  0  0  0  0  0  0  0999 V2000
  -22.0210   32.6060   -5.8270 C   0  0  0  0  0  0  0  0  0  0  0  0
  -21.9040   35.1220   -5.6630 C   0  0  0  0  0  0  0  0  0  0  0  0
  -21.8060   33.7450   -5.0570 C   0  0  0  0  0  0  0  0  0  0  0  0
  -21.4950   33.5800   -3.7000 C   0  0  0  0  0  0  0  0  0  0  0  0
  -21.4200   32.4290   -3.0710 N   0  0  0  0  0  0  0  0  0  0  0  0
  -21.6110   31.2850   -3.8260 C   0  0  0  0  0  0  0  0  0  0  0  0
  -21.5310   30.0280   -3.1750 C   0  0  0  0  0  0  0  0  0  0  0  0
  -21.6960   28.8780   -3.8790 C   0  0  0  0  0  0  0  0  0  0  0  0
  -21.9130   28.9180   -5.2410 C   0  0  0  0  0  0  0  0  0  0  0  0
  -22.0340   30.1110   -5.8960 C   0  0  0  0  0  0  0  0  0  0  0  0
  -21.9230   31.3260   -5.2010 C   0  0  0  0  0  0  0  0  0  0  0  0
  -22.3100   32.6630   -7.1500 N   0  0  0  0  0  0  0  0  0  0  0  0
  1 12  1  0  0  0  0
  1 11  2  0  0  0  0
  1  3  1  0  0  0  0
  2  3  1  0  0  0  0
  3  4  2  0  0  0  0
  4  5  1  0  0  0  0
  5  6  2  0  0  0  0
  6 11  1  0  0  0  0
  6  7  1  0  0  0  0
  7  8  2  0  0  0  0
  8  9  1  0  0  0  0
  9 10  2  0  0  0  0
 10 11  1  0  0  0  0
M  END
>  <MODEL>
      16

>  <COMPND>
    UNNAMED

>  <AUTHOR>
    GENERATED BY OPEN BABEL 2.4.90

>  <MASTER>
        0    0    0    0    0    0    0    0   12    0   12    0

