__1bem_A_rec_4nvo_556_lig_docked.pdb
 OpenBabel10181915233D

 13 15  0  0  0  0  0  0  0  0999 V2000
  -22.0750   30.8640   -3.5330 C   0  0  0  0  0  0  0  0  0  0  0  0
  -22.6290   30.4160   -4.8610 C   0  0  0  0  0  0  0  0  0  0  0  0
  -22.7710   31.6920   -5.6260 C   0  0  0  0  0  0  0  0  0  0  0  0
  -21.9520   32.6630   -4.8810 N   0  0  0  0  0  0  0  0  0  0  0  0
  -21.5760   32.1570   -3.7040 C   0  0  0  0  0  0  0  0  0  0  0  0
  -20.8430   33.0840   -3.0840 N   0  0  0  0  0  0  0  0  0  0  0  0
  -20.7570   34.1590   -3.8590 C   0  0  0  0  0  0  0  0  0  0  0  0
  -21.4440   33.8860   -4.9570 C   0  0  0  0  0  0  0  0  0  0  0  0
  -21.6030   34.7140   -5.9910 C   0  0  0  0  0  0  0  0  0  0  0  0
  -22.4500   36.1420   -5.9920 S   0  0  0  0  0  0  0  0  0  0  0  0
  -22.1520   36.4920   -7.5800 C   0  0  0  0  0  0  0  0  0  0  0  0
  -21.4080   35.4960   -8.0780 C   0  0  0  0  0  0  0  0  0  0  0  0
  -21.1030   34.5120   -7.2120 C   0  0  0  0  0  0  0  0  0  0  0  0
  1  2  1  0  0  0  0
  1  5  1  0  0  0  0
  2  3  1  0  0  0  0
  3  4  1  0  0  0  0
  4  8  1  0  0  0  0
  4  5  1  0  0  0  0
  5  6  2  0  0  0  0
  6  7  1  0  0  0  0
  7  8  2  0  0  0  0
  8  9  1  0  0  0  0
  9 13  2  0  0  0  0
  9 10  1  0  0  0  0
 10 11  1  0  0  0  0
 11 12  2  0  0  0  0
 12 13  1  0  0  0  0
M  END
>  <MODEL>
       3

>  <COMPND>
    UNNAMED

>  <AUTHOR>
    GENERATED BY OPEN BABEL 2.4.90

>  <MASTER>
        0    0    0    0    0    0    0    0   13    0   13    0

