__1bem_A_rec_4jmt_1lz_lig_docked.pdb
 OpenBabel10181915233D

 11 12  0  0  0  0  0  0  0  0999 V2000
  -21.8020   29.1830   -4.8260 C   0  0  0  0  0  0  0  0  0  0  0  0
  -21.7470   29.1470   -3.4210 C   0  0  0  0  0  0  0  0  0  0  0  0
  -21.8330   30.4070   -2.9600 N   0  0  0  0  0  0  0  0  0  0  0  0
  -21.9440   31.2700   -3.9970 C   0  0  0  0  0  0  0  0  0  0  0  0
  -21.9330   30.5380   -5.1880 C   0  0  0  0  0  0  0  0  0  0  0  0
  -22.0320   31.1630   -6.4030 N   0  0  0  0  0  0  0  0  0  0  0  0
  -22.1480   32.4840   -6.4880 C   0  0  0  0  0  0  0  0  0  0  0  0
  -22.1680   33.2550   -5.3580 C   0  0  0  0  0  0  0  0  0  0  0  0
  -22.0650   32.6290   -4.0560 C   0  0  0  0  0  0  0  0  0  0  0  0
  -22.3240   34.7190   -5.4590 C   0  0  0  0  0  0  0  0  0  0  0  0
  -23.5980   35.2280   -5.1480 O   0  0  0  0  0  0  0  0  0  0  0  0
  1  5  2  0  0  0  0
  1  2  1  0  0  0  0
  2  3  1  0  0  0  0
  3  4  2  0  0  0  0
  4  5  1  0  0  0  0
  4  9  1  0  0  0  0
  5  6  1  0  0  0  0
  6  7  2  0  0  0  0
  7  8  1  0  0  0  0
  8 10  1  0  0  0  0
  8  9  2  0  0  0  0
 10 11  1  0  0  0  0
M  END
>  <MODEL>
      12

>  <COMPND>
    UNNAMED

>  <AUTHOR>
    GENERATED BY OPEN BABEL 2.4.90

>  <MASTER>
        0    0    0    0    0    0    0    0   11    0   11    0

