__1bem_A_rec_4nvh_2nb_lig_docked.pdb
 OpenBabel10181915243D

 14 15  0  0  0  0  0  0  0  0999 V2000
  -21.7850   33.3480   -5.0230 C   0  0  0  0  0  0  0  0  0  0  0  0
  -21.7500   33.2810   -3.6430 C   0  0  0  0  0  0  0  0  0  0  0  0
  -21.7460   32.0480   -3.0260 N   0  0  0  0  0  0  0  0  0  0  0  0
  -21.7710   30.9130   -3.7350 C   0  0  0  0  0  0  0  0  0  0  0  0
  -21.7660   29.7120   -3.0490 C   0  0  0  0  0  0  0  0  0  0  0  0
  -21.7880   28.5180   -3.7460 C   0  0  0  0  0  0  0  0  0  0  0  0
  -21.8190   28.5390   -5.1340 C   0  0  0  0  0  0  0  0  0  0  0  0
  -21.8210   29.7390   -5.8280 C   0  0  0  0  0  0  0  0  0  0  0  0
  -21.8040   30.9360   -5.1260 C   0  0  0  0  0  0  0  0  0  0  0  0
  -21.8110   32.1740   -5.7670 C   0  0  0  0  0  0  0  0  0  0  0  0
  -21.8410   32.2260   -7.0930 N   0  0  0  0  0  0  0  0  0  0  0  0
  -20.7370   34.9800   -6.1730 O   0  0  0  0  0  0  0  0  0  0  0  0
  -21.7990   34.5310   -5.6180 N   0  0  0  0  0  0  0  0  0  0  0  0
  -22.9290   35.1220   -5.7370 O   0  0  0  0  0  0  0  0  0  0  0  0
  1 10  2  0  0  0  0
  1 13  1  0  0  0  0
  1  2  1  0  0  0  0
  2  3  2  0  0  0  0
  3  4  1  0  0  0  0
  4  9  2  0  0  0  0
  4  5  1  0  0  0  0
  5  6  2  0  0  0  0
  6  7  1  0  0  0  0
  7  8  2  0  0  0  0
  8  9  1  0  0  0  0
  9 10  1  0  0  0  0
 10 11  1  0  0  0  0
 12 13  2  0  0  0  0
 13 14  2  0  0  0  0
M  END
>  <MODEL>
       8

>  <COMPND>
    UNNAMED

>  <AUTHOR>
    GENERATED BY OPEN BABEL 2.4.90

>  <MASTER>
        0    0    0    0    0    0    0    0   14    0   14    0

