__1bem_A_rec_1aek_idm_lig_min.pdb
 OpenBabel10181913083D

  9 10  0  0  0  0  0  0  0  0999 V2000
  -21.8540   32.4720   -2.8680 N   0  0  0  0  0  0  0  0  0  0  0  0
  -21.6420   33.5390   -3.9560 C   0  0  0  0  0  0  0  0  0  0  0  0
  -22.1620   32.8790   -5.2460 C   0  0  0  0  0  0  0  0  0  0  0  0
  -22.0070   31.4030   -4.9580 C   0  0  0  0  0  0  0  0  0  0  0  0
  -22.0380   30.3020   -5.8150 C   0  0  0  0  0  0  0  0  0  0  0  0
  -21.8920   29.0230   -5.2710 C   0  0  0  0  0  0  0  0  0  0  0  0
  -21.7230   28.8300   -3.8960 C   0  0  0  0  0  0  0  0  0  0  0  0
  -21.6940   29.9200   -3.0210 C   0  0  0  0  0  0  0  0  0  0  0  0
  -21.8350   31.1710   -3.5990 C   0  0  0  0  0  0  0  0  0  0  0  0
  1  2  1  0  0  0  0
  1  9  1  0  0  0  0
  2  3  1  0  0  0  0
  3  4  1  0  0  0  0
  4  5  2  0  0  0  0
  4  9  1  0  0  0  0
  5  6  1  0  0  0  0
  6  7  2  0  0  0  0
  7  8  1  0  0  0  0
  8  9  2  0  0  0  0
M  END
>  <COMPND>
    UNNAMED

>  <AUTHOR>
    GENERATED BY OPEN BABEL 2.4.90

>  <MASTER>
        0    0    0    0    0    0    0    0    9    0    9    0

