__1bes_A_rec_4nvh_2nb_lig_min.pdb
 OpenBabel10181911593D

 14 15  0  0  0  0  0  0  0  0999 V2000
  -21.7830   33.6350   -5.0130 C   0  0  0  0  0  0  0  0  0  0  0  0
  -21.3950   33.6360   -3.6870 C   0  0  0  0  0  0  0  0  0  0  0  0
  -21.3330   32.4430   -3.0000 N   0  0  0  0  0  0  0  0  0  0  0  0
  -21.6350   31.2800   -3.5920 C   0  0  0  0  0  0  0  0  0  0  0  0
  -21.5500   30.1220   -2.8410 C   0  0  0  0  0  0  0  0  0  0  0  0
  -21.8510   28.9020   -3.4170 C   0  0  0  0  0  0  0  0  0  0  0  0
  -22.2410   28.8540   -4.7490 C   0  0  0  0  0  0  0  0  0  0  0  0
  -22.3250   30.0100   -5.5090 C   0  0  0  0  0  0  0  0  0  0  0  0
  -22.0260   31.2340   -4.9260 C   0  0  0  0  0  0  0  0  0  0  0  0
  -22.0980   32.4320   -5.6360 C   0  0  0  0  0  0  0  0  0  0  0  0
  -22.4680   32.4180   -6.9110 N   0  0  0  0  0  0  0  0  0  0  0  0
  -22.9300   35.4720   -5.6430 O   0  0  0  0  0  0  0  0  0  0  0  0
  -21.8530   34.7800   -5.6730 N   0  0  0  0  0  0  0  0  0  0  0  0
  -20.7770   35.2250   -6.2080 O   0  0  0  0  0  0  0  0  0  0  0  0
  1 10  2  0  0  0  0
  1 13  1  0  0  0  0
  1  2  1  0  0  0  0
  2  3  2  0  0  0  0
  3  4  1  0  0  0  0
  4  9  2  0  0  0  0
  4  5  1  0  0  0  0
  5  6  2  0  0  0  0
  6  7  1  0  0  0  0
  7  8  2  0  0  0  0
  8  9  1  0  0  0  0
  9 10  1  0  0  0  0
 10 11  1  0  0  0  0
 12 13  2  0  0  0  0
 13 14  2  0  0  0  0
M  END
>  <COMPND>
    UNNAMED

>  <AUTHOR>
    GENERATED BY OPEN BABEL 2.4.90

>  <MASTER>
        0    0    0    0    0    0    0    0   14    0   14    0

