__1bes_A_rec_4nvo_556_lig_docked.pdb
 OpenBabel10181922213D

 13 15  0  0  0  0  0  0  0  0999 V2000
  -22.2990   30.6140   -3.5210 C   0  0  0  0  0  0  0  0  0  0  0  0
  -22.8470   30.2250   -4.8700 C   0  0  0  0  0  0  0  0  0  0  0  0
  -22.9660   31.5310   -5.5870 C   0  0  0  0  0  0  0  0  0  0  0  0
  -22.1400   32.4610   -4.7980 N   0  0  0  0  0  0  0  0  0  0  0  0
  -21.7810   31.9060   -3.6390 C   0  0  0  0  0  0  0  0  0  0  0  0
  -21.0420   32.7990   -2.9780 N   0  0  0  0  0  0  0  0  0  0  0  0
  -20.9340   33.9010   -3.7090 C   0  0  0  0  0  0  0  0  0  0  0  0
  -21.6150   33.6790   -4.8230 C   0  0  0  0  0  0  0  0  0  0  0  0
  -21.7550   34.5480   -5.8260 C   0  0  0  0  0  0  0  0  0  0  0  0
  -21.6610   34.2090   -7.4480 S   0  0  0  0  0  0  0  0  0  0  0  0
  -21.9330   35.7620   -7.9440 C   0  0  0  0  0  0  0  0  0  0  0  0
  -22.0870   36.5120   -6.8450 C   0  0  0  0  0  0  0  0  0  0  0  0
  -21.9880   35.8540   -5.6760 C   0  0  0  0  0  0  0  0  0  0  0  0
  1  2  1  0  0  0  0
  1  5  1  0  0  0  0
  2  3  1  0  0  0  0
  3  4  1  0  0  0  0
  4  8  1  0  0  0  0
  4  5  1  0  0  0  0
  5  6  2  0  0  0  0
  6  7  1  0  0  0  0
  7  8  2  0  0  0  0
  8  9  1  0  0  0  0
  9 13  2  0  0  0  0
  9 10  1  0  0  0  0
 10 11  1  0  0  0  0
 11 12  2  0  0  0  0
 12 13  1  0  0  0  0
M  END
>  <MODEL>
       5

>  <COMPND>
    UNNAMED

>  <AUTHOR>
    GENERATED BY OPEN BABEL 2.4.90

>  <MASTER>
        0    0    0    0    0    0    0    0   13    0   13    0

