__1bes_A_rec_4nvo_556_lig_min.pdb
 OpenBabel10181911593D

 13 15  0  0  0  0  0  0  0  0999 V2000
  -22.1980   30.7300   -3.3190 C   0  0  0  0  0  0  0  0  0  0  0  0
  -22.7980   30.2500   -4.6160 C   0  0  0  0  0  0  0  0  0  0  0  0
  -22.9510   31.5050   -5.4130 C   0  0  0  0  0  0  0  0  0  0  0  0
  -22.1010   32.4880   -4.7220 N   0  0  0  0  0  0  0  0  0  0  0  0
  -21.6920   32.0130   -3.5440 C   0  0  0  0  0  0  0  0  0  0  0  0
  -20.9320   32.9500   -2.9740 N   0  0  0  0  0  0  0  0  0  0  0  0
  -20.8600   34.0010   -3.7810 C   0  0  0  0  0  0  0  0  0  0  0  0
  -21.5830   33.7030   -4.8490 C   0  0  0  0  0  0  0  0  0  0  0  0
  -21.7670   34.5020   -5.9020 C   0  0  0  0  0  0  0  0  0  0  0  0
  -22.2180   36.0990   -5.8630 S   0  0  0  0  0  0  0  0  0  0  0  0
  -22.2130   36.2980   -7.5040 C   0  0  0  0  0  0  0  0  0  0  0  0
  -21.8660   35.1250   -8.0490 C   0  0  0  0  0  0  0  0  0  0  0  0
  -21.6210   34.1300   -7.1750 C   0  0  0  0  0  0  0  0  0  0  0  0
  1  2  1  0  0  0  0
  1  5  1  0  0  0  0
  2  3  1  0  0  0  0
  3  4  1  0  0  0  0
  4  8  1  0  0  0  0
  4  5  1  0  0  0  0
  5  6  2  0  0  0  0
  6  7  1  0  0  0  0
  7  8  2  0  0  0  0
  8  9  1  0  0  0  0
  9 13  2  0  0  0  0
  9 10  1  0  0  0  0
 10 11  1  0  0  0  0
 11 12  2  0  0  0  0
 12 13  1  0  0  0  0
M  END
>  <COMPND>
    UNNAMED

>  <AUTHOR>
    GENERATED BY OPEN BABEL 2.4.90

>  <MASTER>
        0    0    0    0    0    0    0    0   13    0   13    0

