__1bes_A_rec_1aeh_24t_lig_min.pdb
 OpenBabel10181907523D

  7  7  0  0  0  0  0  0  0  0999 V2000
  -21.9030   28.2230   -3.7720 S   0  0  0  0  0  0  0  0  0  0  0  0
  -21.5310   29.0710   -5.2360 C   0  0  0  0  0  0  0  0  0  0  0  0
  -21.3530   30.3800   -4.9940 N   0  0  0  0  0  0  0  0  0  0  0  0
  -21.5010   30.7800   -3.6500 C   0  0  0  0  0  0  0  0  0  0  0  0
  -21.8000   29.7250   -2.8660 C   0  0  0  0  0  0  0  0  0  0  0  0
  -21.4330   28.5030   -6.4410 N   0  0  0  0  0  0  0  0  0  0  0  0
  -21.3210   32.2180   -3.2850 C   0  0  0  0  0  0  0  0  0  0  0  0
  1  2  1  0  0  0  0
  1  5  1  0  0  0  0
  2  6  1  0  0  0  0
  2  3  2  0  0  0  0
  3  4  1  0  0  0  0
  4  7  1  0  0  0  0
  4  5  2  0  0  0  0
M  END
>  <COMPND>
    UNNAMED

>  <AUTHOR>
    GENERATED BY OPEN BABEL 2.4.90

>  <MASTER>
        0    0    0    0    0    0    0    0    7    0    7    0

