__1ccg_A_rec_1aeb_3mt_lig_min.pdb
 OpenBabel10181913233D

  6  6  0  0  0  0  0  0  0  0999 V2000
  -19.0180   27.0910   -4.8840 C   0  0  0  0  0  0  0  0  0  0  0  0
  -19.7710   26.5300   -6.0280 N   0  0  0  0  0  0  0  0  0  0  0  0
  -20.9300   25.7860   -5.8650 C   0  0  0  0  0  0  0  0  0  0  0  0
  -21.4540   25.3740   -7.0470 C   0  0  0  0  0  0  0  0  0  0  0  0
  -20.4880   25.9250   -8.3750 S   0  0  0  0  0  0  0  0  0  0  0  0
  -19.4180   26.6860   -7.2990 C   0  0  0  0  0  0  0  0  0  0  0  0
  1  2  1  0  0  0  0
  2  3  1  0  0  0  0
  2  6  1  0  0  0  0
  3  4  2  0  0  0  0
  4  5  1  0  0  0  0
  5  6  1  0  0  0  0
M  END
>  <COMPND>
    UNNAMED

>  <AUTHOR>
    GENERATED BY OPEN BABEL 2.4.90

>  <MASTER>
        0    0    0    0    0    0    0    0    6    0    6    0

