__1cci_A_rec_1aeo_2ap_lig_min.pdb
 OpenBabel10181912053D

  7  7  0  0  0  0  0  0  0  0999 V2000
  -21.5340   30.8130   -2.9630 N   0  0  0  0  0  0  0  0  0  0  0  0
  -21.8530   32.0360   -3.4700 C   0  0  0  0  0  0  0  0  0  0  0  0
  -22.4210   32.0740   -4.7650 C   0  0  0  0  0  0  0  0  0  0  0  0
  -22.6270   30.8980   -5.4550 C   0  0  0  0  0  0  0  0  0  0  0  0
  -22.2780   29.6510   -4.8890 C   0  0  0  0  0  0  0  0  0  0  0  0
  -21.7300   29.6370   -3.6380 C   0  0  0  0  0  0  0  0  0  0  0  0
  -21.6210   33.1340   -2.7330 N   0  0  0  0  0  0  0  0  0  0  0  0
  1  6  2  0  0  0  0
  1  2  1  0  0  0  0
  2  3  2  0  0  0  0
  2  7  1  0  0  0  0
  3  4  1  0  0  0  0
  4  5  2  0  0  0  0
  5  6  1  0  0  0  0
M  END
>  <COMPND>
    UNNAMED

>  <AUTHOR>
    GENERATED BY OPEN BABEL 2.4.90

>  <MASTER>
        0    0    0    0    0    0    0    0    7    0    7    0

