__1cci_A_rec_4jmt_1lz_lig_docked.pdb
 OpenBabel10181914543D

 11 12  0  0  0  0  0  0  0  0999 V2000
  -22.0890   29.4770   -4.3460 C   0  0  0  0  0  0  0  0  0  0  0  0
  -21.8480   29.4720   -2.9610 C   0  0  0  0  0  0  0  0  0  0  0  0
  -21.6520   30.7410   -2.5590 N   0  0  0  0  0  0  0  0  0  0  0  0
  -21.7530   31.5790   -3.6170 C   0  0  0  0  0  0  0  0  0  0  0  0
  -22.0320   30.8230   -4.7590 C   0  0  0  0  0  0  0  0  0  0  0  0
  -22.1890   31.4210   -5.9820 N   0  0  0  0  0  0  0  0  0  0  0  0
  -22.0850   32.7380   -6.1200 C   0  0  0  0  0  0  0  0  0  0  0  0
  -21.8170   33.5330   -5.0400 C   0  0  0  0  0  0  0  0  0  0  0  0
  -21.6460   32.9360   -3.7300 C   0  0  0  0  0  0  0  0  0  0  0  0
  -21.7310   34.9970   -5.1950 C   0  0  0  0  0  0  0  0  0  0  0  0
  -22.8400   35.7340   -4.7430 O   0  0  0  0  0  0  0  0  0  0  0  0
  1  5  2  0  0  0  0
  1  2  1  0  0  0  0
  2  3  1  0  0  0  0
  3  4  2  0  0  0  0
  4  5  1  0  0  0  0
  4  9  1  0  0  0  0
  5  6  1  0  0  0  0
  6  7  2  0  0  0  0
  7  8  1  0  0  0  0
  8 10  1  0  0  0  0
  8  9  2  0  0  0  0
 10 11  1  0  0  0  0
M  END
>  <MODEL>
      17

>  <COMPND>
    UNNAMED

>  <AUTHOR>
    GENERATED BY OPEN BABEL 2.4.90

>  <MASTER>
        0    0    0    0    0    0    0    0   11    0   11    0

