__1cci_A_rec_1aef_3ap_lig_min.pdb
 OpenBabel10181902523D

  7  7  0  0  0  0  0  0  0  0999 V2000
  -21.8880   30.8370   -2.8300 N   0  0  0  0  0  0  0  0  0  0  0  0
  -21.9190   31.3930   -4.0600 C   0  0  0  0  0  0  0  0  0  0  0  0
  -21.9120   30.5680   -5.1990 C   0  0  0  0  0  0  0  0  0  0  0  0
  -21.8740   29.1690   -4.9720 C   0  0  0  0  0  0  0  0  0  0  0  0
  -21.8430   28.6550   -3.6850 C   0  0  0  0  0  0  0  0  0  0  0  0
  -21.8500   29.5130   -2.5910 C   0  0  0  0  0  0  0  0  0  0  0  0
  -21.9430   31.0930   -6.4460 N   0  0  0  0  0  0  0  0  0  0  0  0
  1  2  2  0  0  0  0
  1  6  1  0  0  0  0
  2  3  1  0  0  0  0
  3  7  1  0  0  0  0
  3  4  2  0  0  0  0
  4  5  1  0  0  0  0
  5  6  2  0  0  0  0
M  END
>  <COMPND>
    UNNAMED

>  <AUTHOR>
    GENERATED BY OPEN BABEL 2.4.90

>  <MASTER>
        0    0    0    0    0    0    0    0    7    0    7    0

