__1cci_A_rec_1aen_25t_lig_min.pdb
 OpenBabel10181906303D

  7  7  0  0  0  0  0  0  0  0999 V2000
  -22.4970   31.3460   -5.2220 S   0  0  0  0  0  0  0  0  0  0  0  0
  -22.2670   32.3410   -4.2640 C   0  0  0  0  0  0  0  0  0  0  0  0
  -21.7030   31.7350   -3.1350 N   0  0  0  0  0  0  0  0  0  0  0  0
  -21.5820   30.3630   -3.3960 C   0  0  0  0  0  0  0  0  0  0  0  0
  -22.0730   30.1230   -4.6860 C   0  0  0  0  0  0  0  0  0  0  0  0
  -22.5710   33.7810   -4.4160 N   0  0  0  0  0  0  0  0  0  0  0  0
  -22.1350   28.7560   -5.3910 C   0  0  0  0  0  0  0  0  0  0  0  0
  1  5  1  0  0  0  0
  1  2  1  0  0  0  0
  2  6  1  0  0  0  0
  2  3  2  0  0  0  0
  3  4  1  0  0  0  0
  4  5  2  0  0  0  0
  5  7  1  0  0  0  0
M  END
>  <COMPND>
    UNNAMED

>  <AUTHOR>
    GENERATED BY OPEN BABEL 2.4.90

>  <MASTER>
        0    0    0    0    0    0    0    0    7    0    7    0

