__1cci_A_rec_1aem_mpi_lig_min.pdb
 OpenBabel10181908323D

  9 10  0  0  0  0  0  0  0  0999 V2000
  -22.1350   30.9210   -4.6480 N   0  0  0  0  0  0  0  0  0  0  0  0
  -21.8240   30.6140   -3.3410 C   0  0  0  0  0  0  0  0  0  0  0  0
  -21.7060   29.2830   -2.9190 C   0  0  0  0  0  0  0  0  0  0  0  0
  -21.9070   28.2960   -3.8600 C   0  0  0  0  0  0  0  0  0  0  0  0
  -22.2270   28.6260   -5.2020 C   0  0  0  0  0  0  0  0  0  0  0  0
  -22.3370   29.9360   -5.5840 C   0  0  0  0  0  0  0  0  0  0  0  0
  -21.6930   31.7990   -2.6910 N   0  0  0  0  0  0  0  0  0  0  0  0
  -21.9160   32.8400   -3.5680 C   0  0  0  0  0  0  0  0  0  0  0  0
  -22.1910   32.3090   -4.7880 C   0  0  0  0  0  0  0  0  0  0  0  0
  1  6  1  0  0  0  0
  1  9  1  0  0  0  0
  1  2  1  0  0  0  0
  2  3  1  0  0  0  0
  2  7  2  0  0  0  0
  3  4  2  0  0  0  0
  4  5  1  0  0  0  0
  5  6  2  0  0  0  0
  7  8  1  0  0  0  0
  8  9  2  0  0  0  0
M  END
>  <COMPND>
    UNNAMED

>  <AUTHOR>
    GENERATED BY OPEN BABEL 2.4.90

>  <MASTER>
        0    0    0    0    0    0    0    0    9    0    9    0

