__1cci_A_rec_1ac8_tmz_lig_docked.pdb
 OpenBabel10181914503D

  8  8  0  0  0  0  0  0  0  0999 V2000
  -21.8120   29.2250   -2.8600 S   0  0  0  0  0  0  0  0  0  0  0  0
  -21.8940   30.9680   -2.7010 C   0  0  0  0  0  0  0  0  0  0  0  0
  -22.0600   31.5410   -3.9090 N   0  0  0  0  0  0  0  0  0  0  0  0
  -22.1370   30.5850   -4.9520 C   0  0  0  0  0  0  0  0  0  0  0  0
  -21.9610   29.2740   -4.5570 C   0  0  0  0  0  0  0  0  0  0  0  0
  -22.1160   32.8740   -4.0960 C   0  0  0  0  0  0  0  0  0  0  0  0
  -22.2330   31.1190   -6.3330 C   0  0  0  0  0  0  0  0  0  0  0  0
  -22.0410   27.9920   -5.3470 C   0  0  0  0  0  0  0  0  0  0  0  0
  1  5  1  0  0  0  0
  1  2  1  0  0  0  0
  2  3  1  0  0  0  0
  3  4  1  0  0  0  0
  3  6  1  0  0  0  0
  4  7  1  0  0  0  0
  4  5  2  0  0  0  0
  5  8  1  0  0  0  0
M  END
>  <MODEL>
      12

>  <COMPND>
    UNNAMED

>  <AUTHOR>
    GENERATED BY OPEN BABEL 2.4.90

>  <MASTER>
        0    0    0    0    0    0    0    0    8    0    8    0

