__1cck_A_rec_1cci_dmi_lig_min.pdb
 OpenBabel10181903233D

  7  7  0  0  0  0  0  0  0  0999 V2000
  -22.1370   25.2420   -0.5600 N   0  0  0  0  0  0  0  0  0  0  0  0
  -22.2040   25.2010   -1.8740 C   0  0  0  0  0  0  0  0  0  0  0  0
  -21.0530   25.0530   -2.7890 C   0  0  0  0  0  0  0  0  0  0  0  0
  -23.4980   25.2680   -2.1700 N   0  0  0  0  0  0  0  0  0  0  0  0
  -24.0800   25.2220   -3.5470 C   0  0  0  0  0  0  0  0  0  0  0  0
  -24.2410   25.3730   -1.1040 C   0  0  0  0  0  0  0  0  0  0  0  0
  -23.3460   25.3560   -0.0500 C   0  0  0  0  0  0  0  0  0  0  0  0
  1  2  2  0  0  0  0
  1  7  1  0  0  0  0
  2  4  1  0  0  0  0
  2  3  1  0  0  0  0
  4  5  1  0  0  0  0
  4  6  1  0  0  0  0
  6  7  2  0  0  0  0
M  END
>  <COMPND>
    UNNAMED

>  <AUTHOR>
    GENERATED BY OPEN BABEL 2.4.90

>  <MASTER>
        0    0    0    0    0    0    0    0    7    0    7    0

