__1cmp_A_rec_1aeb_3mt_lig_docked.pdb
 OpenBabel10181914403D

  6  6  0  0  0  0  0  0  0  0999 V2000
  -22.3640   32.0410   -3.3120 C   0  0  0  0  0  0  0  0  0  0  0  0
  -22.2740   30.6420   -3.7840 N   0  0  0  0  0  0  0  0  0  0  0  0
  -21.9660   29.5870   -2.9370 C   0  0  0  0  0  0  0  0  0  0  0  0
  -21.9390   28.3930   -3.5820 C   0  0  0  0  0  0  0  0  0  0  0  0
  -22.3030   28.5920   -5.2640 S   0  0  0  0  0  0  0  0  0  0  0  0
  -22.4790   30.2670   -5.0430 C   0  0  0  0  0  0  0  0  0  0  0  0
  1  2  1  0  0  0  0
  2  3  1  0  0  0  0
  2  6  1  0  0  0  0
  3  4  2  0  0  0  0
  4  5  1  0  0  0  0
  5  6  1  0  0  0  0
M  END
>  <MODEL>
       2

>  <COMPND>
    UNNAMED

>  <AUTHOR>
    GENERATED BY OPEN BABEL 2.4.90

>  <MASTER>
        0    0    0    0    0    0    0    0    6    0    6    0

