__1cmp_A_rec_1cmp_dmi_lig_min.pdb
 OpenBabel10181913433D

  7  7  0  0  0  0  0  0  0  0999 V2000
  -21.9240   30.1610   -2.6320 N   0  0  0  0  0  0  0  0  0  0  0  0
  -22.3070   30.9990   -3.5330 C   0  0  0  0  0  0  0  0  0  0  0  0
  -22.3450   32.4450   -3.3960 C   0  0  0  0  0  0  0  0  0  0  0  0
  -22.5350   30.2730   -4.5840 N   0  0  0  0  0  0  0  0  0  0  0  0
  -23.0300   30.7770   -5.8850 C   0  0  0  0  0  0  0  0  0  0  0  0
  -22.3030   29.0110   -4.3780 C   0  0  0  0  0  0  0  0  0  0  0  0
  -21.8910   28.9330   -3.0680 C   0  0  0  0  0  0  0  0  0  0  0  0
  1  2  2  0  0  0  0
  1  7  1  0  0  0  0
  2  4  1  0  0  0  0
  2  3  1  0  0  0  0
  4  5  1  0  0  0  0
  4  6  1  0  0  0  0
  6  7  2  0  0  0  0
M  END
>  <COMPND>
    UNNAMED

>  <AUTHOR>
    GENERATED BY OPEN BABEL 2.4.90

>  <MASTER>
        0    0    0    0    0    0    0    0    7    0    7    0

