__1cmp_A_rec_1aed_dti_lig_docked.pdb
 OpenBabel10181914443D

  7  7  0  0  0  0  0  0  0  0999 V2000
  -22.3050   30.2660   -3.8740 N   0  0  0  0  0  0  0  0  0  0  0  0
  -22.6210   29.8550   -5.1760 C   0  0  0  0  0  0  0  0  0  0  0  0
  -21.9590   27.7650   -3.8290 S   0  0  0  0  0  0  0  0  0  0  0  0
  -21.9430   29.2770   -3.0650 C   0  0  0  0  0  0  0  0  0  0  0  0
  -22.4790   28.5060   -5.3030 C   0  0  0  0  0  0  0  0  0  0  0  0
  -23.0510   30.8350   -6.2210 C   0  0  0  0  0  0  0  0  0  0  0  0
  -22.3660   31.6770   -3.4390 C   0  0  0  0  0  0  0  0  0  0  0  0
  1  2  1  0  0  0  0
  1  7  1  0  0  0  0
  1  4  1  0  0  0  0
  2  6  1  0  0  0  0
  2  5  2  0  0  0  0
  3  5  1  0  0  0  0
  3  4  1  0  0  0  0
M  END
>  <MODEL>
       9

>  <COMPND>
    UNNAMED

>  <AUTHOR>
    GENERATED BY OPEN BABEL 2.4.90

>  <MASTER>
        0    0    0    0    0    0    0    0    7    0    7    0

