__1cmu_A_rec_1aet_1mz_lig_min.pdb
 OpenBabel10181910583D

  6  6  0  0  0  0  0  0  0  0999 V2000
  -22.5640   29.5730   -4.7480 N   0  0  0  0  0  0  0  0  0  0  0  0
  -22.2760   29.7530   -3.4790 C   0  0  0  0  0  0  0  0  0  0  0  0
  -22.6410   30.9700   -3.1470 N   0  0  0  0  0  0  0  0  0  0  0  0
  -23.1210   31.5900   -4.1960 C   0  0  0  0  0  0  0  0  0  0  0  0
  -23.0900   30.6680   -5.2460 C   0  0  0  0  0  0  0  0  0  0  0  0
  -22.3090   28.3120   -5.5490 C   0  0  0  0  0  0  0  0  0  0  0  0
  1  6  1  0  0  0  0
  1  5  1  0  0  0  0
  1  2  1  0  0  0  0
  2  3  2  0  0  0  0
  3  4  1  0  0  0  0
  4  5  2  0  0  0  0
M  END
>  <COMPND>
    UNNAMED

>  <AUTHOR>
    GENERATED BY OPEN BABEL 2.4.90

>  <MASTER>
        0    0    0    0    0    0    0    0    6    0    6    0

