__1cpe_A_rec_1aeu_2mz_lig_min.pdb
 OpenBabel10181909423D

  6  6  0  0  0  0  0  0  0  0999 V2000
  -22.0020   30.2470   -4.4670 N   0  0  0  0  0  0  0  0  0  0  0  0
  -22.0880   31.1120   -3.4430 C   0  0  0  0  0  0  0  0  0  0  0  0
  -22.1320   30.3580   -2.3310 N   0  0  0  0  0  0  0  0  0  0  0  0
  -22.0720   29.0110   -2.6490 C   0  0  0  0  0  0  0  0  0  0  0  0
  -21.9900   28.9400   -4.0050 C   0  0  0  0  0  0  0  0  0  0  0  0
  -22.1660   32.5960   -3.5250 C   0  0  0  0  0  0  0  0  0  0  0  0
  1  5  1  0  0  0  0
  1  2  2  0  0  0  0
  2  6  1  0  0  0  0
  2  3  1  0  0  0  0
  3  4  2  0  0  0  0
  4  5  1  0  0  0  0
M  END
>  <COMPND>
    UNNAMED

>  <AUTHOR>
    GENERATED BY OPEN BABEL 2.4.90

>  <MASTER>
        0    0    0    0    0    0    0    0    6    0    6    0

