__1cpe_A_rec_1aeu_2mz_lig_docked.pdb
 OpenBabel10181918093D

  6  6  0  0  0  0  0  0  0  0999 V2000
  -22.1430   29.5960   -2.4910 N   0  0  0  0  0  0  0  0  0  0  0  0
  -22.0730   30.4220   -3.5470 C   0  0  0  0  0  0  0  0  0  0  0  0
  -21.9320   29.6290   -4.6220 N   0  0  0  0  0  0  0  0  0  0  0  0
  -21.9150   28.2950   -4.2490 C   0  0  0  0  0  0  0  0  0  0  0  0
  -22.0490   28.2730   -2.8960 C   0  0  0  0  0  0  0  0  0  0  0  0
  -22.0980   31.9100   -3.5260 C   0  0  0  0  0  0  0  0  0  0  0  0
  1  5  1  0  0  0  0
  1  2  2  0  0  0  0
  2  6  1  0  0  0  0
  2  3  1  0  0  0  0
  3  4  2  0  0  0  0
  4  5  1  0  0  0  0
M  END
>  <MODEL>
      16

>  <COMPND>
    UNNAMED

>  <AUTHOR>
    GENERATED BY OPEN BABEL 2.4.90

>  <MASTER>
        0    0    0    0    0    0    0    0    6    0    6    0

