__1cyf_A_rec_1aeh_24t_lig_min.pdb
 OpenBabel10181913323D

  7  7  0  0  0  0  0  0  0  0999 V2000
  -21.8460   25.9540   -7.9980 S   0  0  0  0  0  0  0  0  0  0  0  0
  -20.1980   26.3050   -7.5930 C   0  0  0  0  0  0  0  0  0  0  0  0
  -19.9630   26.0450   -6.2970 N   0  0  0  0  0  0  0  0  0  0  0  0
  -21.0630   25.5600   -5.5590 C   0  0  0  0  0  0  0  0  0  0  0  0
  -22.1560   25.4560   -6.3420 C   0  0  0  0  0  0  0  0  0  0  0  0
  -19.2860   26.7700   -8.4500 N   0  0  0  0  0  0  0  0  0  0  0  0
  -20.8950   25.2410   -4.1090 C   0  0  0  0  0  0  0  0  0  0  0  0
  1  2  1  0  0  0  0
  1  5  1  0  0  0  0
  2  6  1  0  0  0  0
  2  3  2  0  0  0  0
  3  4  1  0  0  0  0
  4  7  1  0  0  0  0
  4  5  2  0  0  0  0
M  END
>  <COMPND>
    UNNAMED

>  <AUTHOR>
    GENERATED BY OPEN BABEL 2.4.90

>  <MASTER>
        0    0    0    0    0    0    0    0    7    0    7    0

