__1cyf_A_rec_1aeb_3mt_lig_min.pdb
 OpenBabel10181909493D

  6  6  0  0  0  0  0  0  0  0999 V2000
  -20.2240   24.5540   -3.1270 C   0  0  0  0  0  0  0  0  0  0  0  0
  -21.1590   24.5580   -1.9800 N   0  0  0  0  0  0  0  0  0  0  0  0
  -20.7390   24.7760   -0.6760 C   0  0  0  0  0  0  0  0  0  0  0  0
  -21.7630   24.7380    0.2140 C   0  0  0  0  0  0  0  0  0  0  0  0
  -23.2660   24.4290   -0.5890 S   0  0  0  0  0  0  0  0  0  0  0  0
  -22.4690   24.3610   -2.0870 C   0  0  0  0  0  0  0  0  0  0  0  0
  1  2  1  0  0  0  0
  2  3  1  0  0  0  0
  2  6  1  0  0  0  0
  3  4  2  0  0  0  0
  4  5  1  0  0  0  0
  5  6  1  0  0  0  0
M  END
>  <COMPND>
    UNNAMED

>  <AUTHOR>
    GENERATED BY OPEN BABEL 2.4.90

>  <MASTER>
        0    0    0    0    0    0    0    0    6    0    6    0

