__1z53_A_rec_4nvo_556_lig_min.pdb
 OpenBabel10181911373D

 13 15  0  0  0  0  0  0  0  0999 V2000
  -20.2150   25.8850   -8.6270 C   0  0  0  0  0  0  0  0  0  0  0  0
  -21.6830   26.2060   -8.7410 C   0  0  0  0  0  0  0  0  0  0  0  0
  -22.2120   25.9030   -7.3760 C   0  0  0  0  0  0  0  0  0  0  0  0
  -21.0140   25.8330   -6.5230 N   0  0  0  0  0  0  0  0  0  0  0  0
  -19.9050   25.8280   -7.2660 C   0  0  0  0  0  0  0  0  0  0  0  0
  -18.8640   25.7610   -6.4350 N   0  0  0  0  0  0  0  0  0  0  0  0
  -19.3090   25.7270   -5.1840 C   0  0  0  0  0  0  0  0  0  0  0  0
  -20.6300   25.7700   -5.2550 C   0  0  0  0  0  0  0  0  0  0  0  0
  -21.4580   25.7550   -4.2090 C   0  0  0  0  0  0  0  0  0  0  0  0
  -23.1170   25.7410   -4.2610 S   0  0  0  0  0  0  0  0  0  0  0  0
  -23.3200   25.7290   -2.6210 C   0  0  0  0  0  0  0  0  0  0  0  0
  -22.1010   25.7390   -2.0660 C   0  0  0  0  0  0  0  0  0  0  0  0
  -21.0710   25.7550   -2.9310 C   0  0  0  0  0  0  0  0  0  0  0  0
  1  2  1  0  0  0  0
  1  5  1  0  0  0  0
  2  3  1  0  0  0  0
  3  4  1  0  0  0  0
  4  8  1  0  0  0  0
  4  5  1  0  0  0  0
  5  6  2  0  0  0  0
  6  7  1  0  0  0  0
  7  8  2  0  0  0  0
  8  9  1  0  0  0  0
  9 13  2  0  0  0  0
  9 10  1  0  0  0  0
 10 11  1  0  0  0  0
 11 12  2  0  0  0  0
 12 13  1  0  0  0  0
M  END
>  <COMPND>
    UNNAMED

>  <AUTHOR>
    GENERATED BY OPEN BABEL 2.4.90

>  <MASTER>
        0    0    0    0    0    0    0    0   13    0   13    0

