__2x08_A_rec_1cmp_dmi_lig_min.pdb
 OpenBabel10181910533D

  7  7  0  0  0  0  0  0  0  0999 V2000
  -21.7960   25.7850   -1.6920 N   0  0  0  0  0  0  0  0  0  0  0  0
  -23.0410   25.5460   -1.9210 C   0  0  0  0  0  0  0  0  0  0  0  0
  -24.1080   25.5450   -0.9350 C   0  0  0  0  0  0  0  0  0  0  0  0
  -23.1220   25.4210   -3.2100 N   0  0  0  0  0  0  0  0  0  0  0  0
  -24.3550   25.1090   -3.9670 C   0  0  0  0  0  0  0  0  0  0  0  0
  -21.9730   25.5790   -3.7990 C   0  0  0  0  0  0  0  0  0  0  0  0
  -21.0810   25.8250   -2.7820 C   0  0  0  0  0  0  0  0  0  0  0  0
  1  2  2  0  0  0  0
  1  7  1  0  0  0  0
  2  4  1  0  0  0  0
  2  3  1  0  0  0  0
  4  5  1  0  0  0  0
  4  6  1  0  0  0  0
  6  7  2  0  0  0  0
M  END
>  <COMPND>
    UNNAMED

>  <AUTHOR>
    GENERATED BY OPEN BABEL 2.4.90

>  <MASTER>
        0    0    0    0    0    0    0    0    7    0    7    0

