__3exb_A_rec_4jpt_q24_lig_docked.pdb
 OpenBabel10181916503D

 12 13  0  0  0  0  0  0  0  0999 V2000
  -22.2360   31.2630   -6.7520 N   0  0  0  0  0  0  0  0  0  0  0  0
  -22.2620   32.5920   -6.4950 C   0  0  0  0  0  0  0  0  0  0  0  0
  -22.2430   33.1110   -5.2490 N   0  0  0  0  0  0  0  0  0  0  0  0
  -22.2420   32.3150   -4.1450 C   0  0  0  0  0  0  0  0  0  0  0  0
  -22.3610   30.0510   -3.3060 C   0  0  0  0  0  0  0  0  0  0  0  0
  -22.3730   28.6770   -3.5100 C   0  0  0  0  0  0  0  0  0  0  0  0
  -22.3450   28.1810   -4.8130 C   0  0  0  0  0  0  0  0  0  0  0  0
  -22.3020   29.0730   -5.8860 C   0  0  0  0  0  0  0  0  0  0  0  0
  -22.2880   30.9360   -4.3840 C   0  0  0  0  0  0  0  0  0  0  0  0
  -22.2710   30.4450   -5.6970 C   0  0  0  0  0  0  0  0  0  0  0  0
  -22.1730   33.4180   -7.5030 N   0  0  0  0  0  0  0  0  0  0  0  0
  -22.1910   32.8710   -2.9040 N   0  0  0  0  0  0  0  0  0  0  0  0
  1  2  2  0  0  0  0
  1 10  1  0  0  0  0
  2 11  1  0  0  0  0
  2  3  1  0  0  0  0
  3  4  2  0  0  0  0
  4  9  1  0  0  0  0
  4 12  1  0  0  0  0
  5  9  2  0  0  0  0
  5  6  1  0  0  0  0
  6  7  2  0  0  0  0
  7  8  1  0  0  0  0
  8 10  2  0  0  0  0
  9 10  1  0  0  0  0
M  END
>  <MODEL>
       1

>  <COMPND>
    UNNAMED

>  <AUTHOR>
    GENERATED BY OPEN BABEL 2.4.90

>  <MASTER>
        0    0    0    0    0    0    0    0   12    0   12    0

