__3exb_A_rec_1cci_dmi_lig_docked.pdb
 OpenBabel10181916493D

  7  7  0  0  0  0  0  0  0  0999 V2000
  -21.9650   30.6620   -3.0740 N   0  0  0  0  0  0  0  0  0  0  0  0
  -22.0220   31.6640   -3.9270 C   0  0  0  0  0  0  0  0  0  0  0  0
  -21.7130   33.0740   -3.6160 C   0  0  0  0  0  0  0  0  0  0  0  0
  -22.3590   31.1240   -5.0940 N   0  0  0  0  0  0  0  0  0  0  0  0
  -22.5150   31.8650   -6.3840 C   0  0  0  0  0  0  0  0  0  0  0  0
  -22.5380   29.8350   -5.0050 C   0  0  0  0  0  0  0  0  0  0  0  0
  -22.2800   29.5360   -3.6800 C   0  0  0  0  0  0  0  0  0  0  0  0
  1  2  2  0  0  0  0
  1  7  1  0  0  0  0
  2  4  1  0  0  0  0
  2  3  1  0  0  0  0
  4  5  1  0  0  0  0
  4  6  1  0  0  0  0
  6  7  2  0  0  0  0
M  END
>  <MODEL>
       4

>  <COMPND>
    UNNAMED

>  <AUTHOR>
    GENERATED BY OPEN BABEL 2.4.90

>  <MASTER>
        0    0    0    0    0    0    0    0    7    0    7    0

