__3exb_A_rec_4nvh_2nb_lig_docked.pdb
 OpenBabel10181916553D

 14 15  0  0  0  0  0  0  0  0999 V2000
  -22.2490   34.0600   -5.3850 C   0  0  0  0  0  0  0  0  0  0  0  0
  -21.8970   33.9230   -4.0550 C   0  0  0  0  0  0  0  0  0  0  0  0
  -21.8250   32.6630   -3.5010 N   0  0  0  0  0  0  0  0  0  0  0  0
  -22.0840   31.5670   -4.2250 C   0  0  0  0  0  0  0  0  0  0  0  0
  -21.9910   30.3350   -3.6030 C   0  0  0  0  0  0  0  0  0  0  0  0
  -22.2470   29.1790   -4.3170 C   0  0  0  0  0  0  0  0  0  0  0  0
  -22.6000   29.2700   -5.6580 C   0  0  0  0  0  0  0  0  0  0  0  0
  -22.6900   30.5010   -6.2890 C   0  0  0  0  0  0  0  0  0  0  0  0
  -22.4370   31.6600   -5.5680 C   0  0  0  0  0  0  0  0  0  0  0  0
  -22.5180   32.9260   -6.1440 C   0  0  0  0  0  0  0  0  0  0  0  0
  -22.8540   33.0450   -7.4230 N   0  0  0  0  0  0  0  0  0  0  0  0
  -21.3620   35.7240   -6.6220 O   0  0  0  0  0  0  0  0  0  0  0  0
  -22.3290   35.2690   -5.9170 N   0  0  0  0  0  0  0  0  0  0  0  0
  -23.4470   35.8880   -5.8190 O   0  0  0  0  0  0  0  0  0  0  0  0
  1 10  2  0  0  0  0
  1 13  1  0  0  0  0
  1  2  1  0  0  0  0
  2  3  2  0  0  0  0
  3  4  1  0  0  0  0
  4  9  2  0  0  0  0
  4  5  1  0  0  0  0
  5  6  2  0  0  0  0
  6  7  1  0  0  0  0
  7  8  2  0  0  0  0
  8  9  1  0  0  0  0
  9 10  1  0  0  0  0
 10 11  1  0  0  0  0
 12 13  2  0  0  0  0
 13 14  2  0  0  0  0
M  END
>  <MODEL>
       3

>  <COMPND>
    UNNAMED

>  <AUTHOR>
    GENERATED BY OPEN BABEL 2.4.90

>  <MASTER>
        0    0    0    0    0    0    0    0   14    0   14    0

