__3exb_A_rec_1aet_1mz_lig_min.pdb
 OpenBabel10181912373D

  6  6  0  0  0  0  0  0  0  0999 V2000
  -22.3060   30.7710   -5.0000 N   0  0  0  0  0  0  0  0  0  0  0  0
  -21.8660   31.6270   -4.1060 C   0  0  0  0  0  0  0  0  0  0  0  0
  -22.1480   32.8380   -4.5290 N   0  0  0  0  0  0  0  0  0  0  0  0
  -22.7260   32.7750   -5.7030 C   0  0  0  0  0  0  0  0  0  0  0  0
  -22.8490   31.4160   -6.0070 C   0  0  0  0  0  0  0  0  0  0  0  0
  -22.1890   29.2620   -4.9210 C   0  0  0  0  0  0  0  0  0  0  0  0
  1  6  1  0  0  0  0
  1  5  1  0  0  0  0
  1  2  1  0  0  0  0
  2  3  2  0  0  0  0
  3  4  1  0  0  0  0
  4  5  2  0  0  0  0
M  END
>  <COMPND>
    UNNAMED

>  <AUTHOR>
    GENERATED BY OPEN BABEL 2.4.90

>  <MASTER>
        0    0    0    0    0    0    0    0    6    0    6    0

