__3exb_A_rec_4nvj_2nx_lig_docked.pdb
 OpenBabel10181916503D

 15 15  0  0  0  0  0  0  0  0999 V2000
  -21.8750   33.8950   -5.0330 N   0  0  0  0  0  0  0  0  0  0  0  0
  -22.4120   32.9000   -5.7560 C   0  0  0  0  0  0  0  0  0  0  0  0
  -22.9600   33.0830   -6.8380 O   0  0  0  0  0  0  0  0  0  0  0  0
  -22.4090   31.6240   -5.2060 C   0  0  0  0  0  0  0  0  0  0  0  0
  -22.3220   31.4680   -3.8290 C   0  0  0  0  0  0  0  0  0  0  0  0
  -22.2880   30.1950   -3.2740 C   0  0  0  0  0  0  0  0  0  0  0  0
  -22.3230   29.0760   -4.0940 C   0  0  0  0  0  0  0  0  0  0  0  0
  -22.3940   29.2310   -5.4730 C   0  0  0  0  0  0  0  0  0  0  0  0
  -22.4250   30.5040   -6.0270 C   0  0  0  0  0  0  0  0  0  0  0  0
  -22.0090   35.4070   -5.7260 P   0  0  0  0  0  0  0  0  0  0  0  0
  -23.3590   35.9520   -5.9190 O   0  0  0  0  0  0  0  0  0  0  0  0
  -21.7460   37.7210   -4.5580 C   0  0  0  0  0  0  0  0  0  0  0  0
  -21.1600   36.4750   -4.9250 O   0  0  0  0  0  0  0  0  0  0  0  0
  -21.2710   35.4010   -7.1380 O   0  0  0  0  0  0  0  0  0  0  0  0
  -20.1880   36.3040   -7.3760 C   0  0  0  0  0  0  0  0  0  0  0  0
  1  2  1  0  0  0  0
  1 10  1  0  0  0  0
  2  3  2  0  0  0  0
  2  4  1  0  0  0  0
  4  5  2  0  0  0  0
  4  9  1  0  0  0  0
  5  6  1  0  0  0  0
  6  7  2  0  0  0  0
  7  8  1  0  0  0  0
  8  9  2  0  0  0  0
 10 14  1  0  0  0  0
 10 11  2  0  0  0  0
 10 13  1  0  0  0  0
 12 13  1  0  0  0  0
 14 15  1  0  0  0  0
M  END
>  <MODEL>
       1

>  <COMPND>
    UNNAMED

>  <AUTHOR>
    GENERATED BY OPEN BABEL 2.4.90

>  <MASTER>
        0    0    0    0    0    0    0    0   15    0   15    0

