__4jmb_A_rec_5u5v_7wa_lig_min.pdb
 OpenBabel10181908303D

 10 11  0  0  0  0  0  0  0  0999 V2000
  -22.2000   31.7070   -5.0080 C   0  0  0  0  0  0  0  0  0  0  0  0
  -21.9730   31.9190   -7.4400 N   0  0  0  0  0  0  0  0  0  0  0  0
  -22.1090   31.1420   -6.3050 C   0  0  0  0  0  0  0  0  0  0  0  0
  -22.1850   29.7530   -6.3830 C   0  0  0  0  0  0  0  0  0  0  0  0
  -22.3240   28.9330   -5.2440 C   0  0  0  0  0  0  0  0  0  0  0  0
  -22.3930   29.4480   -3.9810 C   0  0  0  0  0  0  0  0  0  0  0  0
  -22.3220   30.8380   -3.8900 C   0  0  0  0  0  0  0  0  0  0  0  0
  -22.3330   31.6630   -2.7620 N   0  0  0  0  0  0  0  0  0  0  0  0
  -22.2150   32.9620   -3.2200 C   0  0  0  0  0  0  0  0  0  0  0  0
  -22.1290   33.0380   -4.5570 N   0  0  0  0  0  0  0  0  0  0  0  0
  1  3  2  0  0  0  0
  1 10  1  0  0  0  0
  1  7  1  0  0  0  0
  2  3  1  0  0  0  0
  3  4  1  0  0  0  0
  4  5  1  0  0  0  0
  5  6  2  0  0  0  0
  6  7  1  0  0  0  0
  7  8  2  0  0  0  0
  8  9  1  0  0  0  0
  9 10  2  0  0  0  0
M  END
>  <COMPND>
    UNNAMED

>  <AUTHOR>
    GENERATED BY OPEN BABEL 2.4.90

>  <MASTER>
        0    0    0    0    0    0    0    0   10    0   10    0

