__4jmb_A_rec_4jmt_1lz_lig_docked.pdb
 OpenBabel10181922453D

 11 12  0  0  0  0  0  0  0  0999 V2000
  -22.7580   29.9580   -5.4730 C   0  0  0  0  0  0  0  0  0  0  0  0
  -22.3120   29.8120   -4.1480 C   0  0  0  0  0  0  0  0  0  0  0  0
  -21.9860   31.0280   -3.6730 N   0  0  0  0  0  0  0  0  0  0  0  0
  -22.1970   31.9660   -4.6250 C   0  0  0  0  0  0  0  0  0  0  0  0
  -22.6870   31.3340   -5.7720 C   0  0  0  0  0  0  0  0  0  0  0  0
  -22.9910   32.0500   -6.8990 N   0  0  0  0  0  0  0  0  0  0  0  0
  -22.8340   33.3690   -6.9370 C   0  0  0  0  0  0  0  0  0  0  0  0
  -22.3620   34.0460   -5.8460 C   0  0  0  0  0  0  0  0  0  0  0  0
  -22.0310   33.3210   -4.6360 C   0  0  0  0  0  0  0  0  0  0  0  0
  -22.2170   35.5130   -5.8860 C   0  0  0  0  0  0  0  0  0  0  0  0
  -23.4100   36.2550   -5.8270 O   0  0  0  0  0  0  0  0  0  0  0  0
  1  5  2  0  0  0  0
  1  2  1  0  0  0  0
  2  3  1  0  0  0  0
  3  4  2  0  0  0  0
  4  5  1  0  0  0  0
  4  9  1  0  0  0  0
  5  6  1  0  0  0  0
  6  7  2  0  0  0  0
  7  8  1  0  0  0  0
  8 10  1  0  0  0  0
  8  9  2  0  0  0  0
 10 11  1  0  0  0  0
M  END
>  <MODEL>
       3

>  <COMPND>
    UNNAMED

>  <AUTHOR>
    GENERATED BY OPEN BABEL 2.4.90

>  <MASTER>
        0    0    0    0    0    0    0    0   11    0   11    0

