__4jmb_A_rec_4nvn_2o1_lig_min.pdb
 OpenBabel10181909283D

 15 17  0  0  0  0  0  0  0  0999 V2000
  -21.4380   36.4230   -5.7940 O   0  0  0  0  0  0  0  0  0  0  0  0
  -21.5360   35.3640   -6.4020 C   0  0  0  0  0  0  0  0  0  0  0  0
  -21.2600   35.3490   -7.7710 C   0  0  0  0  0  0  0  0  0  0  0  0
  -22.0060   34.2230   -8.4780 C   0  0  0  0  0  0  0  0  0  0  0  0
  -21.8160   32.9560   -7.7600 N   0  0  0  0  0  0  0  0  0  0  0  0
  -21.8870   32.9680   -6.3760 C   0  0  0  0  0  0  0  0  0  0  0  0
  -21.7620   34.1750   -5.7080 C   0  0  0  0  0  0  0  0  0  0  0  0
  -21.8300   34.1730   -4.3220 C   0  0  0  0  0  0  0  0  0  0  0  0
  -22.0330   32.9750   -3.6300 N   0  0  0  0  0  0  0  0  0  0  0  0
  -22.1580   31.8160   -4.2860 C   0  0  0  0  0  0  0  0  0  0  0  0
  -22.0850   31.7900   -5.6700 C   0  0  0  0  0  0  0  0  0  0  0  0
  -22.2150   30.5830   -6.3430 C   0  0  0  0  0  0  0  0  0  0  0  0
  -22.4130   29.4050   -5.6380 C   0  0  0  0  0  0  0  0  0  0  0  0
  -22.4860   29.4290   -4.2520 C   0  0  0  0  0  0  0  0  0  0  0  0
  -22.3570   30.6360   -3.5800 C   0  0  0  0  0  0  0  0  0  0  0  0
  1  2  2  0  0  0  0
  2  3  1  0  0  0  0
  2  7  1  0  0  0  0
  3  4  1  0  0  0  0
  4  5  1  0  0  0  0
  5  6  1  0  0  0  0
  6 11  2  0  0  0  0
  6  7  1  0  0  0  0
  7  8  2  0  0  0  0
  8  9  1  0  0  0  0
  9 10  2  0  0  0  0
 10 11  1  0  0  0  0
 10 15  1  0  0  0  0
 11 12  1  0  0  0  0
 12 13  2  0  0  0  0
 13 14  1  0  0  0  0
 14 15  2  0  0  0  0
M  END
>  <COMPND>
    UNNAMED

>  <AUTHOR>
    GENERATED BY OPEN BABEL 2.4.90

>  <MASTER>
        0    0    0    0    0    0    0    0   15    0   15    0

