__4jmb_A_rec_4jqk_1ln_lig_min.pdb
 OpenBabel10181903393D

 10 10  0  0  0  0  0  0  0  0999 V2000
  -22.1480   29.8620   -4.7600 C   0  0  0  0  0  0  0  0  0  0  0  0
  -22.4630   30.2100   -6.1150 C   0  0  0  0  0  0  0  0  0  0  0  0
  -22.7550   31.5200   -6.3930 C   0  0  0  0  0  0  0  0  0  0  0  0
  -22.7140   32.5080   -5.4420 N   0  0  0  0  0  0  0  0  0  0  0  0
  -22.3550   32.1940   -4.2160 C   0  0  0  0  0  0  0  0  0  0  0  0
  -22.0740   30.8720   -3.8170 C   0  0  0  0  0  0  0  0  0  0  0  0
  -22.2360   33.2350   -3.2550 N   0  0  0  0  0  0  0  0  0  0  0  0
  -23.0650   33.8510   -5.8650 C   0  0  0  0  0  0  0  0  0  0  0  0
  -22.0180   34.7470   -6.4550 C   0  0  0  0  0  0  0  0  0  0  0  0
  -21.0440   35.1000   -5.4970 O   0  0  0  0  0  0  0  0  0  0  0  0
  1  2  2  0  0  0  0
  1  6  1  0  0  0  0
  2  3  1  0  0  0  0
  3  4  1  0  0  0  0
  4  8  1  0  0  0  0
  4  5  1  0  0  0  0
  5  6  2  0  0  0  0
  5  7  1  0  0  0  0
  8  9  1  0  0  0  0
  9 10  1  0  0  0  0
M  END
>  <COMPND>
    UNNAMED

>  <AUTHOR>
    GENERATED BY OPEN BABEL 2.4.90

>  <MASTER>
        0    0    0    0    0    0    0    0   10    0   10    0

