__4jms_A_rec_1aem_mpi_lig_min.pdb
 OpenBabel10181912513D

  9 10  0  0  0  0  0  0  0  0999 V2000
  -22.4790   30.7120   -4.9790 N   0  0  0  0  0  0  0  0  0  0  0  0
  -22.3700   29.9750   -3.8200 C   0  0  0  0  0  0  0  0  0  0  0  0
  -22.1420   28.5930   -3.8600 C   0  0  0  0  0  0  0  0  0  0  0  0
  -22.0280   28.0010   -5.1000 C   0  0  0  0  0  0  0  0  0  0  0  0
  -22.1440   28.7710   -6.2850 C   0  0  0  0  0  0  0  0  0  0  0  0
  -22.3670   30.1200   -6.2150 C   0  0  0  0  0  0  0  0  0  0  0  0
  -22.5270   30.8510   -2.7940 N   0  0  0  0  0  0  0  0  0  0  0  0
  -22.7330   32.1210   -3.2920 C   0  0  0  0  0  0  0  0  0  0  0  0
  -22.7040   32.0500   -4.6480 C   0  0  0  0  0  0  0  0  0  0  0  0
  1  6  1  0  0  0  0
  1  9  1  0  0  0  0
  1  2  1  0  0  0  0
  2  3  1  0  0  0  0
  2  7  2  0  0  0  0
  3  4  2  0  0  0  0
  4  5  1  0  0  0  0
  5  6  2  0  0  0  0
  7  8  1  0  0  0  0
  8  9  2  0  0  0  0
M  END
>  <COMPND>
    UNNAMED

>  <AUTHOR>
    GENERATED BY OPEN BABEL 2.4.90

>  <MASTER>
        0    0    0    0    0    0    0    0    9    0    9    0

