__4jms_A_rec_4nvj_2nx_lig_min.pdb
 OpenBabel10181903183D

 15 15  0  0  0  0  0  0  0  0999 V2000
  -22.0280   34.1340   -5.1810 N   0  0  0  0  0  0  0  0  0  0  0  0
  -22.6040   33.0580   -5.7400 C   0  0  0  0  0  0  0  0  0  0  0  0
  -23.2890   33.1210   -6.7550 O   0  0  0  0  0  0  0  0  0  0  0  0
  -22.4740   31.8400   -5.0850 C   0  0  0  0  0  0  0  0  0  0  0  0
  -22.3180   30.6740   -5.8240 C   0  0  0  0  0  0  0  0  0  0  0  0
  -22.2190   29.4480   -5.1770 C   0  0  0  0  0  0  0  0  0  0  0  0
  -22.2950   29.3830   -3.7920 C   0  0  0  0  0  0  0  0  0  0  0  0
  -22.4660   30.5470   -3.0530 C   0  0  0  0  0  0  0  0  0  0  0  0
  -22.5690   31.7710   -3.7010 C   0  0  0  0  0  0  0  0  0  0  0  0
  -22.3170   35.5690   -5.9800 P   0  0  0  0  0  0  0  0  0  0  0  0
  -23.7000   36.0590   -6.0270 O   0  0  0  0  0  0  0  0  0  0  0  0
  -21.9660   37.7190   -4.5490 C   0  0  0  0  0  0  0  0  0  0  0  0
  -21.4050   36.7300   -5.4080 O   0  0  0  0  0  0  0  0  0  0  0  0
  -21.7830   35.4490   -7.4780 O   0  0  0  0  0  0  0  0  0  0  0  0
  -21.2490   36.6010   -8.1350 C   0  0  0  0  0  0  0  0  0  0  0  0
  1  2  1  0  0  0  0
  1 10  1  0  0  0  0
  2  3  2  0  0  0  0
  2  4  1  0  0  0  0
  4  5  2  0  0  0  0
  4  9  1  0  0  0  0
  5  6  1  0  0  0  0
  6  7  2  0  0  0  0
  7  8  1  0  0  0  0
  8  9  2  0  0  0  0
 10 14  1  0  0  0  0
 10 11  2  0  0  0  0
 10 13  1  0  0  0  0
 12 13  1  0  0  0  0
 14 15  1  0  0  0  0
M  END
>  <COMPND>
    UNNAMED

>  <AUTHOR>
    GENERATED BY OPEN BABEL 2.4.90

>  <MASTER>
        0    0    0    0    0    0    0    0   15    0   15    0

