__4jms_A_rec_4jmt_1lz_lig_min.pdb
 OpenBabel10181904133D

 11 12  0  0  0  0  0  0  0  0999 V2000
  -22.5900   29.6360   -4.8870 C   0  0  0  0  0  0  0  0  0  0  0  0
  -22.2370   29.7500   -3.5310 C   0  0  0  0  0  0  0  0  0  0  0  0
  -22.0670   31.0530   -3.2440 N   0  0  0  0  0  0  0  0  0  0  0  0
  -22.2920   31.8000   -4.3500 C   0  0  0  0  0  0  0  0  0  0  0  0
  -22.6280   30.9460   -5.4040 C   0  0  0  0  0  0  0  0  0  0  0  0
  -22.9110   31.4380   -6.6510 N   0  0  0  0  0  0  0  0  0  0  0  0
  -22.8790   32.7430   -6.8970 C   0  0  0  0  0  0  0  0  0  0  0  0
  -22.5600   33.6310   -5.9060 C   0  0  0  0  0  0  0  0  0  0  0  0
  -22.2560   33.1470   -4.5740 C   0  0  0  0  0  0  0  0  0  0  0  0
  -22.5530   35.0810   -6.1790 C   0  0  0  0  0  0  0  0  0  0  0  0
  -23.7140   35.7850   -5.8120 O   0  0  0  0  0  0  0  0  0  0  0  0
  1  5  2  0  0  0  0
  1  2  1  0  0  0  0
  2  3  1  0  0  0  0
  3  4  2  0  0  0  0
  4  5  1  0  0  0  0
  4  9  1  0  0  0  0
  5  6  1  0  0  0  0
  6  7  2  0  0  0  0
  7  8  1  0  0  0  0
  8 10  1  0  0  0  0
  8  9  2  0  0  0  0
 10 11  1  0  0  0  0
M  END
>  <COMPND>
    UNNAMED

>  <AUTHOR>
    GENERATED BY OPEN BABEL 2.4.90

>  <MASTER>
        0    0    0    0    0    0    0    0   11    0   11    0

