__4jms_A_rec_1aej_nvi_lig_min.pdb
 OpenBabel10181911183D

  7  7  0  0  0  0  0  0  0  0999 V2000
  -22.2800   30.0500   -4.5440 N   0  0  0  0  0  0  0  0  0  0  0  0
  -22.2640   30.3620   -3.2420 C   0  0  0  0  0  0  0  0  0  0  0  0
  -22.6650   31.6320   -3.1160 N   0  0  0  0  0  0  0  0  0  0  0  0
  -22.9360   32.1610   -4.3650 C   0  0  0  0  0  0  0  0  0  0  0  0
  -22.6920   31.1680   -5.2620 C   0  0  0  0  0  0  0  0  0  0  0  0
  -21.9300   28.7810   -5.1190 C   0  0  0  0  0  0  0  0  0  0  0  0
  -22.0110   28.5350   -6.4210 C   0  0  0  0  0  0  0  0  0  0  0  0
  1  6  1  0  0  0  0
  1  5  1  0  0  0  0
  1  2  1  0  0  0  0
  2  3  2  0  0  0  0
  3  4  1  0  0  0  0
  4  5  2  0  0  0  0
  6  7  2  0  0  0  0
M  END
>  <COMPND>
    UNNAMED

>  <AUTHOR>
    GENERATED BY OPEN BABEL 2.4.90

>  <MASTER>
        0    0    0    0    0    0    0    0    7    0    7    0

