__4jmt_A_rec_4nvi_2nw_lig_docked.pdb
 OpenBabel10181916273D

 12 13  0  0  0  0  0  0  0  0999 V2000
  -22.2880   35.5750   -6.0570 Br  0  0  0  0  0  0  0  0  0  0  0  0
  -22.2860   33.8530   -5.3180 C   0  0  0  0  0  0  0  0  0  0  0  0
  -22.2440   33.7150   -3.9430 C   0  0  0  0  0  0  0  0  0  0  0  0
  -22.2350   32.4460   -3.3830 N   0  0  0  0  0  0  0  0  0  0  0  0
  -22.2660   31.3430   -4.1420 C   0  0  0  0  0  0  0  0  0  0  0  0
  -22.2510   30.0970   -3.5360 C   0  0  0  0  0  0  0  0  0  0  0  0
  -22.2810   28.9470   -4.3100 C   0  0  0  0  0  0  0  0  0  0  0  0
  -22.3210   29.0520   -5.6940 C   0  0  0  0  0  0  0  0  0  0  0  0
  -22.3330   30.2980   -6.3040 C   0  0  0  0  0  0  0  0  0  0  0  0
  -22.3060   31.4440   -5.5250 C   0  0  0  0  0  0  0  0  0  0  0  0
  -22.3200   32.7060   -6.0970 C   0  0  0  0  0  0  0  0  0  0  0  0
  -22.3620   32.8100   -7.4210 N   0  0  0  0  0  0  0  0  0  0  0  0
  1  2  1  0  0  0  0
  2 11  2  0  0  0  0
  2  3  1  0  0  0  0
  3  4  2  0  0  0  0
  4  5  1  0  0  0  0
  5 10  2  0  0  0  0
  5  6  1  0  0  0  0
  6  7  2  0  0  0  0
  7  8  1  0  0  0  0
  8  9  2  0  0  0  0
  9 10  1  0  0  0  0
 10 11  1  0  0  0  0
 11 12  1  0  0  0  0
M  END
>  <MODEL>
       3

>  <COMPND>
    UNNAMED

>  <AUTHOR>
    GENERATED BY OPEN BABEL 2.4.90

>  <MASTER>
        0    0    0    0    0    0    0    0   12    0   12    0

