__4jmt_A_rec_4jmb_1lw_lig_min.pdb
 OpenBabel10181914013D

 14 16  0  0  0  0  0  0  0  0999 V2000
  -22.3370   30.5060   -3.5440 C   0  0  0  0  0  0  0  0  0  0  0  0
  -22.3730   29.3120   -4.1710 C   0  0  0  0  0  0  0  0  0  0  0  0
  -22.3100   29.4370   -5.8790 S   0  0  0  0  0  0  0  0  0  0  0  0
  -22.2470   31.1400   -5.7920 C   0  0  0  0  0  0  0  0  0  0  0  0
  -22.2600   31.5980   -4.4740 C   0  0  0  0  0  0  0  0  0  0  0  0
  -22.1980   32.9790   -4.2040 C   0  0  0  0  0  0  0  0  0  0  0  0
  -22.1220   33.8790   -5.2940 C   0  0  0  0  0  0  0  0  0  0  0  0
  -22.1220   33.3830   -6.5800 C   0  0  0  0  0  0  0  0  0  0  0  0
  -22.1570   32.0140   -6.8420 N   0  0  0  0  0  0  0  0  0  0  0  0
  -22.0430   34.2730   -7.7850 C   0  0  0  0  0  0  0  0  0  0  0  0
  -21.3690   35.6080   -7.4810 C   0  0  0  0  0  0  0  0  0  0  0  0
  -21.9030   36.2730   -6.2320 C   0  0  0  0  0  0  0  0  0  0  0  0
  -22.0660   35.3310   -5.0470 C   0  0  0  0  0  0  0  0  0  0  0  0
  -22.1650   33.4020   -2.9220 N   0  0  0  0  0  0  0  0  0  0  0  0
  1  5  1  0  0  0  0
  1  2  2  0  0  0  0
  2  3  1  0  0  0  0
  3  4  1  0  0  0  0
  4  9  2  0  0  0  0
  4  5  1  0  0  0  0
  5  6  2  0  0  0  0
  6  7  1  0  0  0  0
  6 14  1  0  0  0  0
  7  8  2  0  0  0  0
  7 13  1  0  0  0  0
  8 10  1  0  0  0  0
  8  9  1  0  0  0  0
 10 11  1  0  0  0  0
 11 12  1  0  0  0  0
 12 13  1  0  0  0  0
M  END
>  <COMPND>
    UNNAMED

>  <AUTHOR>
    GENERATED BY OPEN BABEL 2.4.90

>  <MASTER>
        0    0    0    0    0    0    0    0   14    0   14    0

