__4jmt_A_rec_5u5v_7wa_lig_min.pdb
 OpenBabel10181913223D

 10 11  0  0  0  0  0  0  0  0999 V2000
  -22.3050   31.6070   -4.8700 C   0  0  0  0  0  0  0  0  0  0  0  0
  -22.0340   32.1010   -7.2560 N   0  0  0  0  0  0  0  0  0  0  0  0
  -22.1220   31.1970   -6.2140 C   0  0  0  0  0  0  0  0  0  0  0  0
  -22.0540   29.8230   -6.4390 C   0  0  0  0  0  0  0  0  0  0  0  0
  -22.1400   28.8760   -5.3990 C   0  0  0  0  0  0  0  0  0  0  0  0
  -22.2950   29.2420   -4.0920 C   0  0  0  0  0  0  0  0  0  0  0  0
  -22.3690   30.6150   -3.8540 C   0  0  0  0  0  0  0  0  0  0  0  0
  -22.4950   31.3090   -2.6470 N   0  0  0  0  0  0  0  0  0  0  0  0
  -22.4970   32.6540   -2.9630 C   0  0  0  0  0  0  0  0  0  0  0  0
  -22.3830   32.8830   -4.2800 N   0  0  0  0  0  0  0  0  0  0  0  0
  1  3  2  0  0  0  0
  1 10  1  0  0  0  0
  1  7  1  0  0  0  0
  2  3  1  0  0  0  0
  3  4  1  0  0  0  0
  4  5  1  0  0  0  0
  5  6  2  0  0  0  0
  6  7  1  0  0  0  0
  7  8  2  0  0  0  0
  8  9  1  0  0  0  0
  9 10  2  0  0  0  0
M  END
>  <COMPND>
    UNNAMED

>  <AUTHOR>
    GENERATED BY OPEN BABEL 2.4.90

>  <MASTER>
        0    0    0    0    0    0    0    0   10    0   10    0

