__4jmv_A_rec_1ac8_tmz_lig_min.pdb
 OpenBabel10181911463D

  8  8  0  0  0  0  0  0  0  0999 V2000
  -22.3880   28.6940   -3.7110 S   0  0  0  0  0  0  0  0  0  0  0  0
  -22.4260   30.3630   -3.1760 C   0  0  0  0  0  0  0  0  0  0  0  0
  -22.3410   31.1950   -4.2310 N   0  0  0  0  0  0  0  0  0  0  0  0
  -22.2610   30.4980   -5.4620 C   0  0  0  0  0  0  0  0  0  0  0  0
  -22.2160   29.1220   -5.3510 C   0  0  0  0  0  0  0  0  0  0  0  0
  -22.3070   32.5370   -4.1170 C   0  0  0  0  0  0  0  0  0  0  0  0
  -22.0780   31.3240   -6.6810 C   0  0  0  0  0  0  0  0  0  0  0  0
  -22.2010   28.0520   -6.4150 C   0  0  0  0  0  0  0  0  0  0  0  0
  1  5  1  0  0  0  0
  1  2  1  0  0  0  0
  2  3  1  0  0  0  0
  3  4  1  0  0  0  0
  3  6  1  0  0  0  0
  4  7  1  0  0  0  0
  4  5  2  0  0  0  0
  5  8  1  0  0  0  0
M  END
>  <COMPND>
    UNNAMED

>  <AUTHOR>
    GENERATED BY OPEN BABEL 2.4.90

>  <MASTER>
        0    0    0    0    0    0    0    0    8    0    8    0

