__4jmv_A_rec_4nvk_2ny_lig_min.pdb
 OpenBabel10181911363D

 16 17  0  0  0  0  0  0  0  0999 V2000
  -22.2310   33.7180   -6.4660 C   0  0  0  0  0  0  0  0  0  0  0  0
  -22.1960   34.0250   -5.1270 N   0  0  0  0  0  0  0  0  0  0  0  0
  -22.2630   32.4230   -6.9060 N   0  0  0  0  0  0  0  0  0  0  0  0
  -22.2800   31.3700   -6.0410 C   0  0  0  0  0  0  0  0  0  0  0  0
  -22.2930   30.0410   -6.5010 C   0  0  0  0  0  0  0  0  0  0  0  0
  -22.3160   28.9840   -5.6240 C   0  0  0  0  0  0  0  0  0  0  0  0
  -22.3050   29.2320   -4.2500 C   0  0  0  0  0  0  0  0  0  0  0  0
  -22.2640   30.5590   -3.7470 C   0  0  0  0  0  0  0  0  0  0  0  0
  -22.2810   31.6370   -4.6550 C   0  0  0  0  0  0  0  0  0  0  0  0
  -22.2280   33.0090   -4.2750 C   0  0  0  0  0  0  0  0  0  0  0  0
  -22.1660   33.3310   -3.0100 N   0  0  0  0  0  0  0  0  0  0  0  0
  -22.1220   34.7380   -7.3090 N   0  0  0  0  0  0  0  0  0  0  0  0
  -20.1230   36.2510   -6.9390 C   0  0  0  0  0  0  0  0  0  0  0  0
  -21.6680   36.0650   -6.8550 C   0  0  0  0  0  0  0  0  0  0  0  0
  -22.2490   34.5060   -8.7490 C   0  0  0  0  0  0  0  0  0  0  0  0
  -22.6630   35.8340   -9.4090 C   0  0  0  0  0  0  0  0  0  0  0  0
  1 12  1  0  0  0  0
  1  3  1  0  0  0  0
  1  2  2  0  0  0  0
  2 10  1  0  0  0  0
  3  4  1  0  0  0  0
  4  5  2  0  0  0  0
  4  9  1  0  0  0  0
  5  6  1  0  0  0  0
  6  7  2  0  0  0  0
  7  8  1  0  0  0  0
  8  9  2  0  0  0  0
  9 10  1  0  0  0  0
 10 11  2  0  0  0  0
 12 15  1  0  0  0  0
 12 14  1  0  0  0  0
 13 14  1  0  0  0  0
 15 16  1  0  0  0  0
M  END
>  <COMPND>
    UNNAMED

>  <AUTHOR>
    GENERATED BY OPEN BABEL 2.4.90

>  <MASTER>
        0    0    0    0    0    0    0    0   16    0   16    0

