__4jmv_A_rec_4nvd_1lq_lig_docked.pdb
 OpenBabel10181922553D

 11 12  0  0  0  0  0  0  0  0999 V2000
  -22.2960   29.5230   -3.4350 C   0  0  0  0  0  0  0  0  0  0  0  0
  -22.3400   28.3730   -4.2090 C   0  0  0  0  0  0  0  0  0  0  0  0
  -22.3830   28.4700   -5.5980 C   0  0  0  0  0  0  0  0  0  0  0  0
  -22.3760   29.7160   -6.2120 C   0  0  0  0  0  0  0  0  0  0  0  0
  -22.3310   30.9100   -5.4210 C   0  0  0  0  0  0  0  0  0  0  0  0
  -22.2860   30.8010   -4.0610 C   0  0  0  0  0  0  0  0  0  0  0  0
  -22.2390   31.9480   -3.2890 N   0  0  0  0  0  0  0  0  0  0  0  0
  -22.2290   33.1590   -3.8590 C   0  0  0  0  0  0  0  0  0  0  0  0
  -22.2760   33.3040   -5.1980 N   0  0  0  0  0  0  0  0  0  0  0  0
  -22.3250   32.2240   -5.9990 C   0  0  0  0  0  0  0  0  0  0  0  0
  -22.3670   32.4570   -7.4040 N   0  0  0  0  0  0  0  0  0  0  0  0
  1  2  2  0  0  0  0
  1  6  1  0  0  0  0
  2  3  1  0  0  0  0
  3  4  2  0  0  0  0
  4  5  1  0  0  0  0
  5 10  2  0  0  0  0
  5  6  1  0  0  0  0
  6  7  2  0  0  0  0
  7  8  1  0  0  0  0
  8  9  2  0  0  0  0
  9 10  1  0  0  0  0
 10 11  1  0  0  0  0
M  END
>  <MODEL>
      16

>  <COMPND>
    UNNAMED

>  <AUTHOR>
    GENERATED BY OPEN BABEL 2.4.90

>  <MASTER>
        0    0    0    0    0    0    0    0   11    0   11    0

