__4jmv_A_rec_4nvo_556_lig_docked.pdb
 OpenBabel10181922553D

 13 15  0  0  0  0  0  0  0  0999 V2000
  -22.4310   30.8720   -3.9700 C   0  0  0  0  0  0  0  0  0  0  0  0
  -22.9060   30.3650   -5.3080 C   0  0  0  0  0  0  0  0  0  0  0  0
  -23.2070   31.6170   -6.0680 C   0  0  0  0  0  0  0  0  0  0  0  0
  -22.5320   32.6820   -5.3060 N   0  0  0  0  0  0  0  0  0  0  0  0
  -22.1060   32.2210   -4.1280 C   0  0  0  0  0  0  0  0  0  0  0  0
  -21.5110   33.2330   -3.4930 N   0  0  0  0  0  0  0  0  0  0  0  0
  -21.5580   34.3150   -4.2600 C   0  0  0  0  0  0  0  0  0  0  0  0
  -22.1900   33.9620   -5.3690 C   0  0  0  0  0  0  0  0  0  0  0  0
  -22.4450   34.7690   -6.4000 C   0  0  0  0  0  0  0  0  0  0  0  0
  -21.8700   34.6070   -7.9480 S   0  0  0  0  0  0  0  0  0  0  0  0
  -22.6310   35.9520   -8.5340 C   0  0  0  0  0  0  0  0  0  0  0  0
  -23.3120   36.5010   -7.5200 C   0  0  0  0  0  0  0  0  0  0  0  0
  -23.2140   35.8590   -6.3420 C   0  0  0  0  0  0  0  0  0  0  0  0
  1  2  1  0  0  0  0
  1  5  1  0  0  0  0
  2  3  1  0  0  0  0
  3  4  1  0  0  0  0
  4  8  1  0  0  0  0
  4  5  1  0  0  0  0
  5  6  2  0  0  0  0
  6  7  1  0  0  0  0
  7  8  2  0  0  0  0
  8  9  1  0  0  0  0
  9 13  2  0  0  0  0
  9 10  1  0  0  0  0
 10 11  1  0  0  0  0
 11 12  2  0  0  0  0
 12 13  1  0  0  0  0
M  END
>  <MODEL>
       1

>  <COMPND>
    UNNAMED

>  <AUTHOR>
    GENERATED BY OPEN BABEL 2.4.90

>  <MASTER>
        0    0    0    0    0    0    0    0   13    0   13    0

