__4jmz_A_rec_1aem_mpi_lig_min.pdb
 OpenBabel10181913273D

  9 10  0  0  0  0  0  0  0  0999 V2000
  -22.2970   31.2150   -5.2080 N   0  0  0  0  0  0  0  0  0  0  0  0
  -22.2580   30.6470   -3.9530 C   0  0  0  0  0  0  0  0  0  0  0  0
  -22.2490   29.2550   -3.7880 C   0  0  0  0  0  0  0  0  0  0  0  0
  -22.2780   28.4790   -4.9260 C   0  0  0  0  0  0  0  0  0  0  0  0
  -22.3200   29.0760   -6.2120 C   0  0  0  0  0  0  0  0  0  0  0  0
  -22.3280   30.4390   -6.3420 C   0  0  0  0  0  0  0  0  0  0  0  0
  -22.2350   31.6780   -3.0680 N   0  0  0  0  0  0  0  0  0  0  0  0
  -22.2620   32.8770   -3.7480 C   0  0  0  0  0  0  0  0  0  0  0  0
  -22.2990   32.6050   -5.0790 C   0  0  0  0  0  0  0  0  0  0  0  0
  1  6  1  0  0  0  0
  1  9  1  0  0  0  0
  1  2  1  0  0  0  0
  2  3  1  0  0  0  0
  2  7  2  0  0  0  0
  3  4  2  0  0  0  0
  4  5  1  0  0  0  0
  5  6  2  0  0  0  0
  7  8  1  0  0  0  0
  8  9  2  0  0  0  0
M  END
>  <COMPND>
    UNNAMED

>  <AUTHOR>
    GENERATED BY OPEN BABEL 2.4.90

>  <MASTER>
        0    0    0    0    0    0    0    0    9    0    9    0

