__4jmz_A_rec_4jqk_1ln_lig_docked.pdb
 OpenBabel10181920363D

 10 10  0  0  0  0  0  0  0  0999 V2000
  -24.4170   31.2990   13.4050 C   0  0  0  0  0  0  0  0  0  0  0  0
  -24.6050   30.6010   12.1670 C   0  0  0  0  0  0  0  0  0  0  0  0
  -24.1440   31.1890   11.0180 C   0  0  0  0  0  0  0  0  0  0  0  0
  -23.4760   32.3870   11.0140 N   0  0  0  0  0  0  0  0  0  0  0  0
  -23.2450   32.9890   12.1610 C   0  0  0  0  0  0  0  0  0  0  0  0
  -23.7100   32.4890   13.3940 C   0  0  0  0  0  0  0  0  0  0  0  0
  -22.4830   34.1890   12.1570 N   0  0  0  0  0  0  0  0  0  0  0  0
  -23.0590   32.9100    9.7260 C   0  0  0  0  0  0  0  0  0  0  0  0
  -23.9070   33.9280    9.0230 C   0  0  0  0  0  0  0  0  0  0  0  0
  -23.1200   34.8030    8.2450 O   0  0  0  0  0  0  0  0  0  0  0  0
  1  2  2  0  0  0  0
  1  6  1  0  0  0  0
  2  3  1  0  0  0  0
  3  4  1  0  0  0  0
  4  8  1  0  0  0  0
  4  5  1  0  0  0  0
  5  6  2  0  0  0  0
  5  7  1  0  0  0  0
  8  9  1  0  0  0  0
  9 10  1  0  0  0  0
M  END
>  <MODEL>
      18

>  <COMPND>
    UNNAMED

>  <AUTHOR>
    GENERATED BY OPEN BABEL 2.4.90

>  <MASTER>
        0    0    0    0    0    0    0    0   10    0   10    0

