__4jmz_A_rec_4jmb_1lw_lig_docked.pdb
 OpenBabel10181920383D

 14 16  0  0  0  0  0  0  0  0999 V2000
  -22.2910   30.2610   -3.5230 C   0  0  0  0  0  0  0  0  0  0  0  0
  -22.3420   29.0270   -4.0670 C   0  0  0  0  0  0  0  0  0  0  0  0
  -22.4040   29.0400   -5.7800 S   0  0  0  0  0  0  0  0  0  0  0  0
  -22.3790   30.7450   -5.8080 C   0  0  0  0  0  0  0  0  0  0  0  0
  -22.3100   31.2900   -4.5260 C   0  0  0  0  0  0  0  0  0  0  0  0
  -22.2640   32.6870   -4.3510 C   0  0  0  0  0  0  0  0  0  0  0  0
  -22.2890   33.5130   -5.5000 C   0  0  0  0  0  0  0  0  0  0  0  0
  -22.3670   32.9330   -6.7480 C   0  0  0  0  0  0  0  0  0  0  0  0
  -22.3860   31.5500   -6.9160 N   0  0  0  0  0  0  0  0  0  0  0  0
  -22.3970   33.7420   -8.0100 C   0  0  0  0  0  0  0  0  0  0  0  0
  -21.7380   35.1090   -7.8430 C   0  0  0  0  0  0  0  0  0  0  0  0
  -22.1990   35.8440   -6.6060 C   0  0  0  0  0  0  0  0  0  0  0  0
  -22.2520   34.9800   -5.3530 C   0  0  0  0  0  0  0  0  0  0  0  0
  -22.1500   33.1960   -3.1050 N   0  0  0  0  0  0  0  0  0  0  0  0
  1  5  1  0  0  0  0
  1  2  2  0  0  0  0
  2  3  1  0  0  0  0
  3  4  1  0  0  0  0
  4  9  2  0  0  0  0
  4  5  1  0  0  0  0
  5  6  2  0  0  0  0
  6  7  1  0  0  0  0
  6 14  1  0  0  0  0
  7  8  2  0  0  0  0
  7 13  1  0  0  0  0
  8 10  1  0  0  0  0
  8  9  1  0  0  0  0
 10 11  1  0  0  0  0
 11 12  1  0  0  0  0
 12 13  1  0  0  0  0
M  END
>  <MODEL>
       1

>  <COMPND>
    UNNAMED

>  <AUTHOR>
    GENERATED BY OPEN BABEL 2.4.90

>  <MASTER>
        0    0    0    0    0    0    0    0   14    0   14    0

