__4jn0_A_rec_1aet_1mz_lig_it1_it2_docked.pdb
 OpenBabel10231911033D

  6  6  0  0  0  0  0  0  0  0999 V2000
  -21.5020   30.0770   -4.2970 N   0  0  0  0  0  0  0  0  0  0  0  0
  -21.7240   29.6880   -3.0620 C   0  0  0  0  0  0  0  0  0  0  0  0
  -21.7190   30.7520   -2.2930 N   0  0  0  0  0  0  0  0  0  0  0  0
  -21.4550   31.8170   -3.0090 C   0  0  0  0  0  0  0  0  0  0  0  0
  -21.3310   31.3790   -4.3310 C   0  0  0  0  0  0  0  0  0  0  0  0
  -21.4190   29.1770   -5.5140 C   0  0  0  0  0  0  0  0  0  0  0  0
  1  6  1  0  0  0  0
  1  5  1  0  0  0  0
  1  2  1  0  0  0  0
  2  3  2  0  0  0  0
  3  4  1  0  0  0  0
  4  5  2  0  0  0  0
M  END
>  <MODEL>
      17

>  <COMPND>
    UNNAMED

>  <AUTHOR>
    GENERATED BY OPEN BABEL 2.4.90

>  <MASTER>
        0    0    0    0    0    0    0    0    6    0    6    0

