__4jn0_A_rec_4jmt_1lz_lig_min.pdb
 OpenBabel10181913533D

 11 12  0  0  0  0  0  0  0  0999 V2000
  -22.6020   29.6980   -5.2030 C   0  0  0  0  0  0  0  0  0  0  0  0
  -22.1860   29.6340   -3.8610 C   0  0  0  0  0  0  0  0  0  0  0  0
  -21.9970   30.8890   -3.4150 N   0  0  0  0  0  0  0  0  0  0  0  0
  -22.2680   31.7740   -4.4010 C   0  0  0  0  0  0  0  0  0  0  0  0
  -22.6580   31.0650   -5.5420 C   0  0  0  0  0  0  0  0  0  0  0  0
  -22.9950   31.7160   -6.6980 N   0  0  0  0  0  0  0  0  0  0  0  0
  -22.9670   33.0420   -6.7730 C   0  0  0  0  0  0  0  0  0  0  0  0
  -22.5980   33.7930   -5.6900 C   0  0  0  0  0  0  0  0  0  0  0  0
  -22.2360   33.1390   -4.4490 C   0  0  0  0  0  0  0  0  0  0  0  0
  -22.5970   35.2660   -5.7710 C   0  0  0  0  0  0  0  0  0  0  0  0
  -23.8560   35.8810   -5.8820 O   0  0  0  0  0  0  0  0  0  0  0  0
  1  5  2  0  0  0  0
  1  2  1  0  0  0  0
  2  3  1  0  0  0  0
  3  4  2  0  0  0  0
  4  5  1  0  0  0  0
  4  9  1  0  0  0  0
  5  6  1  0  0  0  0
  6  7  2  0  0  0  0
  7  8  1  0  0  0  0
  8 10  1  0  0  0  0
  8  9  2  0  0  0  0
 10 11  1  0  0  0  0
M  END
>  <COMPND>
    UNNAMED

>  <AUTHOR>
    GENERATED BY OPEN BABEL 2.4.90

>  <MASTER>
        0    0    0    0    0    0    0    0   11    0   11    0

