__4jn0_A_rec_1aet_1mz_lig_min.pdb
 OpenBabel10181912443D

  6  6  0  0  0  0  0  0  0  0999 V2000
  -22.6010   30.8340   -5.6640 N   0  0  0  0  0  0  0  0  0  0  0  0
  -22.0390   31.3330   -4.5860 C   0  0  0  0  0  0  0  0  0  0  0  0
  -22.3160   32.6150   -4.5390 N   0  0  0  0  0  0  0  0  0  0  0  0
  -23.0130   32.9580   -5.5930 C   0  0  0  0  0  0  0  0  0  0  0  0
  -23.2190   31.7850   -6.3250 C   0  0  0  0  0  0  0  0  0  0  0  0
  -22.5350   29.3890   -6.1150 C   0  0  0  0  0  0  0  0  0  0  0  0
  1  6  1  0  0  0  0
  1  5  1  0  0  0  0
  1  2  1  0  0  0  0
  2  3  2  0  0  0  0
  3  4  1  0  0  0  0
  4  5  2  0  0  0  0
M  END
>  <COMPND>
    UNNAMED

>  <AUTHOR>
    GENERATED BY OPEN BABEL 2.4.90

>  <MASTER>
        0    0    0    0    0    0    0    0    6    0    6    0

