__4jpt_A_rec_4jmb_1lw_lig_docked.pdb
 OpenBabel10181923063D

 14 16  0  0  0  0  0  0  0  0999 V2000
  -22.1170   30.6890   -3.5450 C   0  0  0  0  0  0  0  0  0  0  0  0
  -22.2330   29.4880   -4.1480 C   0  0  0  0  0  0  0  0  0  0  0  0
  -22.4560   29.5960   -5.8440 S   0  0  0  0  0  0  0  0  0  0  0  0
  -22.4150   31.3000   -5.7820 C   0  0  0  0  0  0  0  0  0  0  0  0
  -22.2190   31.7720   -4.4840 C   0  0  0  0  0  0  0  0  0  0  0  0
  -22.1420   33.1570   -4.2380 C   0  0  0  0  0  0  0  0  0  0  0  0
  -22.2660   34.0460   -5.3320 C   0  0  0  0  0  0  0  0  0  0  0  0
  -22.4680   33.5360   -6.5970 C   0  0  0  0  0  0  0  0  0  0  0  0
  -22.5170   32.1650   -6.8390 N   0  0  0  0  0  0  0  0  0  0  0  0
  -22.6080   34.4150   -7.8050 C   0  0  0  0  0  0  0  0  0  0  0  0
  -21.9210   35.7660   -7.6270 C   0  0  0  0  0  0  0  0  0  0  0  0
  -22.2540   36.4340   -6.3120 C   0  0  0  0  0  0  0  0  0  0  0  0
  -22.1990   35.5020   -5.1100 C   0  0  0  0  0  0  0  0  0  0  0  0
  -21.9050   33.5950   -2.9820 N   0  0  0  0  0  0  0  0  0  0  0  0
  1  5  1  0  0  0  0
  1  2  2  0  0  0  0
  2  3  1  0  0  0  0
  3  4  1  0  0  0  0
  4  9  2  0  0  0  0
  4  5  1  0  0  0  0
  5  6  2  0  0  0  0
  6  7  1  0  0  0  0
  6 14  1  0  0  0  0
  7  8  2  0  0  0  0
  7 13  1  0  0  0  0
  8 10  1  0  0  0  0
  8  9  1  0  0  0  0
 10 11  1  0  0  0  0
 11 12  1  0  0  0  0
 12 13  1  0  0  0  0
M  END
>  <MODEL>
       2

>  <COMPND>
    UNNAMED

>  <AUTHOR>
    GENERATED BY OPEN BABEL 2.4.90

>  <MASTER>
        0    0    0    0    0    0    0    0   14    0   14    0

