__4jpt_A_rec_4nvd_1lq_lig_min.pdb
 OpenBabel10181912043D

 11 12  0  0  0  0  0  0  0  0999 V2000
  -21.9990   30.7360   -3.5440 C   0  0  0  0  0  0  0  0  0  0  0  0
  -22.2480   29.5510   -4.2220 C   0  0  0  0  0  0  0  0  0  0  0  0
  -22.5920   29.5810   -5.5710 C   0  0  0  0  0  0  0  0  0  0  0  0
  -22.6830   30.7950   -6.2430 C   0  0  0  0  0  0  0  0  0  0  0  0
  -22.4280   32.0230   -5.5500 C   0  0  0  0  0  0  0  0  0  0  0  0
  -22.0890   31.9790   -4.2290 C   0  0  0  0  0  0  0  0  0  0  0  0
  -21.8380   33.1600   -3.5530 N   0  0  0  0  0  0  0  0  0  0  0  0
  -21.9160   34.3400   -4.1800 C   0  0  0  0  0  0  0  0  0  0  0  0
  -22.2530   34.4200   -5.4820 N   0  0  0  0  0  0  0  0  0  0  0  0
  -22.5090   33.3060   -6.1900 C   0  0  0  0  0  0  0  0  0  0  0  0
  -22.8520   33.4710   -7.5630 N   0  0  0  0  0  0  0  0  0  0  0  0
  1  2  2  0  0  0  0
  1  6  1  0  0  0  0
  2  3  1  0  0  0  0
  3  4  2  0  0  0  0
  4  5  1  0  0  0  0
  5 10  2  0  0  0  0
  5  6  1  0  0  0  0
  6  7  2  0  0  0  0
  7  8  1  0  0  0  0
  8  9  2  0  0  0  0
  9 10  1  0  0  0  0
 10 11  1  0  0  0  0
M  END
>  <COMPND>
    UNNAMED

>  <AUTHOR>
    GENERATED BY OPEN BABEL 2.4.90

>  <MASTER>
        0    0    0    0    0    0    0    0   11    0   11    0

