__4jpt_A_rec_1aek_idm_lig_min.pdb
 OpenBabel10181913423D

  9 10  0  0  0  0  0  0  0  0999 V2000
  -22.2170   32.3760   -3.0420 N   0  0  0  0  0  0  0  0  0  0  0  0
  -21.9410   33.5590   -3.9870 C   0  0  0  0  0  0  0  0  0  0  0  0
  -22.4750   33.0910   -5.3530 C   0  0  0  0  0  0  0  0  0  0  0  0
  -22.3950   31.5850   -5.2500 C   0  0  0  0  0  0  0  0  0  0  0  0
  -22.4680   30.6020   -6.2380 C   0  0  0  0  0  0  0  0  0  0  0  0
  -22.3910   29.2590   -5.8580 C   0  0  0  0  0  0  0  0  0  0  0  0
  -22.2480   28.8890   -4.5160 C   0  0  0  0  0  0  0  0  0  0  0  0
  -22.1770   29.8580   -3.5120 C   0  0  0  0  0  0  0  0  0  0  0  0
  -22.2510   31.1770   -3.9300 C   0  0  0  0  0  0  0  0  0  0  0  0
  1  2  1  0  0  0  0
  1  9  1  0  0  0  0
  2  3  1  0  0  0  0
  3  4  1  0  0  0  0
  4  5  2  0  0  0  0
  4  9  1  0  0  0  0
  5  6  1  0  0  0  0
  6  7  2  0  0  0  0
  7  8  1  0  0  0  0
  8  9  2  0  0  0  0
M  END
>  <COMPND>
    UNNAMED

>  <AUTHOR>
    GENERATED BY OPEN BABEL 2.4.90

>  <MASTER>
        0    0    0    0    0    0    0    0    9    0    9    0

