__4jqj_A_rec_1aet_1mz_lig_min.pdb
 OpenBabel10181904273D

  6  6  0  0  0  0  0  0  0  0999 V2000
  -22.4220   31.6220   -4.3380 N   0  0  0  0  0  0  0  0  0  0  0  0
  -21.9770   32.8260   -4.0550 C   0  0  0  0  0  0  0  0  0  0  0  0
  -22.2270   33.6040   -5.0820 N   0  0  0  0  0  0  0  0  0  0  0  0
  -22.7880   32.9090   -6.0400 C   0  0  0  0  0  0  0  0  0  0  0  0
  -22.9350   31.6090   -5.5460 C   0  0  0  0  0  0  0  0  0  0  0  0
  -22.3380   30.4070   -3.4370 C   0  0  0  0  0  0  0  0  0  0  0  0
  1  6  1  0  0  0  0
  1  5  1  0  0  0  0
  1  2  1  0  0  0  0
  2  3  2  0  0  0  0
  3  4  1  0  0  0  0
  4  5  2  0  0  0  0
M  END
>  <COMPND>
    UNNAMED

>  <AUTHOR>
    GENERATED BY OPEN BABEL 2.4.90

>  <MASTER>
        0    0    0    0    0    0    0    0    6    0    6    0

