__4jqk_A_rec_4nvn_2o1_lig_docked.pdb
 OpenBabel10181916403D

 15 17  0  0  0  0  0  0  0  0999 V2000
  -21.7590   36.3430   -5.4070 O   0  0  0  0  0  0  0  0  0  0  0  0
  -22.1030   35.3420   -6.0250 C   0  0  0  0  0  0  0  0  0  0  0  0
  -22.3370   35.4480   -7.3980 C   0  0  0  0  0  0  0  0  0  0  0  0
  -23.3240   34.3910   -7.8790 C   0  0  0  0  0  0  0  0  0  0  0  0
  -22.9310   33.0650   -7.3850 N   0  0  0  0  0  0  0  0  0  0  0  0
  -22.5020   32.9530   -6.0730 C   0  0  0  0  0  0  0  0  0  0  0  0
  -22.1050   34.0960   -5.3970 C   0  0  0  0  0  0  0  0  0  0  0  0
  -21.6720   33.9710   -4.0850 C   0  0  0  0  0  0  0  0  0  0  0  0
  -21.6530   32.7160   -3.4680 N   0  0  0  0  0  0  0  0  0  0  0  0
  -22.0440   31.6200   -4.1280 C   0  0  0  0  0  0  0  0  0  0  0  0
  -22.4730   31.7180   -5.4430 C   0  0  0  0  0  0  0  0  0  0  0  0
  -22.8760   30.5760   -6.1210 C   0  0  0  0  0  0  0  0  0  0  0  0
  -22.8470   29.3400   -5.4910 C   0  0  0  0  0  0  0  0  0  0  0  0
  -22.4180   29.2410   -4.1750 C   0  0  0  0  0  0  0  0  0  0  0  0
  -22.0160   30.3830   -3.4980 C   0  0  0  0  0  0  0  0  0  0  0  0
  1  2  2  0  0  0  0
  2  3  1  0  0  0  0
  2  7  1  0  0  0  0
  3  4  1  0  0  0  0
  4  5  1  0  0  0  0
  5  6  1  0  0  0  0
  6 11  2  0  0  0  0
  6  7  1  0  0  0  0
  7  8  2  0  0  0  0
  8  9  1  0  0  0  0
  9 10  2  0  0  0  0
 10 11  1  0  0  0  0
 10 15  1  0  0  0  0
 11 12  1  0  0  0  0
 12 13  2  0  0  0  0
 13 14  1  0  0  0  0
 14 15  2  0  0  0  0
M  END
>  <MODEL>
      11

>  <COMPND>
    UNNAMED

>  <AUTHOR>
    GENERATED BY OPEN BABEL 2.4.90

>  <MASTER>
        0    0    0    0    0    0    0    0   15    0   15    0

