__4nvd_A_rec_4nvo_556_lig_min.pdb
 OpenBabel10181913473D

 13 15  0  0  0  0  0  0  0  0999 V2000
  -22.6120   30.7160   -3.9550 C   0  0  0  0  0  0  0  0  0  0  0  0
  -22.8870   30.1990   -5.3450 C   0  0  0  0  0  0  0  0  0  0  0  0
  -22.9450   31.4420   -6.1730 C   0  0  0  0  0  0  0  0  0  0  0  0
  -22.3270   32.4780   -5.3280 N   0  0  0  0  0  0  0  0  0  0  0  0
  -22.1520   32.0290   -4.0830 C   0  0  0  0  0  0  0  0  0  0  0  0
  -21.5940   33.0120   -3.3750 N   0  0  0  0  0  0  0  0  0  0  0  0
  -21.4170   34.0670   -4.1620 C   0  0  0  0  0  0  0  0  0  0  0  0
  -21.8730   33.7240   -5.3570 C   0  0  0  0  0  0  0  0  0  0  0  0
  -21.8760   34.5100   -6.4340 C   0  0  0  0  0  0  0  0  0  0  0  0
  -21.9930   36.1660   -6.4490 S   0  0  0  0  0  0  0  0  0  0  0  0
  -21.9270   36.3080   -8.0950 C   0  0  0  0  0  0  0  0  0  0  0  0
  -21.8190   35.0720   -8.6000 C   0  0  0  0  0  0  0  0  0  0  0  0
  -21.7930   34.0770   -7.6940 C   0  0  0  0  0  0  0  0  0  0  0  0
  1  2  1  0  0  0  0
  1  5  1  0  0  0  0
  2  3  1  0  0  0  0
  3  4  1  0  0  0  0
  4  8  1  0  0  0  0
  4  5  1  0  0  0  0
  5  6  2  0  0  0  0
  6  7  1  0  0  0  0
  7  8  2  0  0  0  0
  8  9  1  0  0  0  0
  9 13  2  0  0  0  0
  9 10  1  0  0  0  0
 10 11  1  0  0  0  0
 11 12  2  0  0  0  0
 12 13  1  0  0  0  0
M  END
>  <COMPND>
    UNNAMED

>  <AUTHOR>
    GENERATED BY OPEN BABEL 2.4.90

>  <MASTER>
        0    0    0    0    0    0    0    0   13    0   13    0

