__4nvd_A_rec_5u5z_7vp_lig_min.pdb
 OpenBabel10181907593D

 12 13  0  0  0  0  0  0  0  0999 V2000
  -22.3360   29.4780   -3.6700 C   0  0  0  0  0  0  0  0  0  0  0  0
  -22.2410   30.4010   -4.8570 C   0  0  0  0  0  0  0  0  0  0  0  0
  -21.7720   30.1090   -6.1260 C   0  0  0  0  0  0  0  0  0  0  0  0
  -21.8920   31.2100   -6.8460 N   0  0  0  0  0  0  0  0  0  0  0  0
  -22.3920   32.1790   -6.0790 C   0  0  0  0  0  0  0  0  0  0  0  0
  -22.6160   31.6700   -4.8700 N   0  0  0  0  0  0  0  0  0  0  0  0
  -22.6480   33.5070   -6.4480 C   0  0  0  0  0  0  0  0  0  0  0  0
  -23.8280   34.1280   -6.0400 C   0  0  0  0  0  0  0  0  0  0  0  0
  -24.1040   35.4470   -6.3830 C   0  0  0  0  0  0  0  0  0  0  0  0
  -23.1960   36.1650   -7.1610 C   0  0  0  0  0  0  0  0  0  0  0  0
  -22.0190   35.5540   -7.5840 C   0  0  0  0  0  0  0  0  0  0  0  0
  -21.7420   34.2270   -7.2290 C   0  0  0  0  0  0  0  0  0  0  0  0
  1  2  1  0  0  0  0
  2  3  2  0  0  0  0
  2  6  1  0  0  0  0
  3  4  1  0  0  0  0
  4  5  2  0  0  0  0
  5  7  1  0  0  0  0
  5  6  1  0  0  0  0
  7 12  2  0  0  0  0
  7  8  1  0  0  0  0
  8  9  2  0  0  0  0
  9 10  1  0  0  0  0
 10 11  2  0  0  0  0
 11 12  1  0  0  0  0
M  END
>  <COMPND>
    UNNAMED

>  <AUTHOR>
    GENERATED BY OPEN BABEL 2.4.90

>  <MASTER>
        0    0    0    0    0    0    0    0   12    0   12    0

