__4nvd_A_rec_4nvn_2o1_lig_docked.pdb
 OpenBabel10181919573D

 15 17  0  0  0  0  0  0  0  0999 V2000
  -21.0730   36.8830   -5.4840 O   0  0  0  0  0  0  0  0  0  0  0  0
  -21.5390   35.9260   -6.0920 C   0  0  0  0  0  0  0  0  0  0  0  0
  -21.7750   36.0520   -7.4620 C   0  0  0  0  0  0  0  0  0  0  0  0
  -22.8840   35.1140   -7.9250 C   0  0  0  0  0  0  0  0  0  0  0  0
  -22.6430   33.7540   -7.4270 N   0  0  0  0  0  0  0  0  0  0  0  0
  -22.2140   33.6000   -6.1190 C   0  0  0  0  0  0  0  0  0  0  0  0
  -21.6780   34.6920   -5.4550 C   0  0  0  0  0  0  0  0  0  0  0  0
  -21.2480   34.5250   -4.1470 C   0  0  0  0  0  0  0  0  0  0  0  0
  -21.3680   33.2800   -3.5220 N   0  0  0  0  0  0  0  0  0  0  0  0
  -21.8910   32.2330   -4.1700 C   0  0  0  0  0  0  0  0  0  0  0  0
  -22.3220   32.3730   -5.4810 C   0  0  0  0  0  0  0  0  0  0  0  0
  -22.8630   31.2820   -6.1470 C   0  0  0  0  0  0  0  0  0  0  0  0
  -22.9710   30.0550   -5.5090 C   0  0  0  0  0  0  0  0  0  0  0  0
  -22.5400   29.9130   -4.1970 C   0  0  0  0  0  0  0  0  0  0  0  0
  -22.0000   31.0040   -3.5320 C   0  0  0  0  0  0  0  0  0  0  0  0
  1  2  2  0  0  0  0
  2  3  1  0  0  0  0
  2  7  1  0  0  0  0
  3  4  1  0  0  0  0
  4  5  1  0  0  0  0
  5  6  1  0  0  0  0
  6 11  2  0  0  0  0
  6  7  1  0  0  0  0
  7  8  2  0  0  0  0
  8  9  1  0  0  0  0
  9 10  2  0  0  0  0
 10 11  1  0  0  0  0
 10 15  1  0  0  0  0
 11 12  1  0  0  0  0
 12 13  2  0  0  0  0
 13 14  1  0  0  0  0
 14 15  2  0  0  0  0
M  END
>  <MODEL>
       1

>  <COMPND>
    UNNAMED

>  <AUTHOR>
    GENERATED BY OPEN BABEL 2.4.90

>  <MASTER>
        0    0    0    0    0    0    0    0   15    0   15    0

