__4nvg_B_rec_1aet_1mz_lig_min.pdb
 OpenBabel10181911333D

  6  6  0  0  0  0  0  0  0  0999 V2000
  -23.2370   31.2970   -6.1700 N   0  0  0  0  0  0  0  0  0  0  0  0
  -24.4190   31.8080   -5.9100 C   0  0  0  0  0  0  0  0  0  0  0  0
  -24.4620   33.0150   -6.4270 N   0  0  0  0  0  0  0  0  0  0  0  0
  -23.3100   33.3040   -6.9780 C   0  0  0  0  0  0  0  0  0  0  0  0
  -22.5080   32.1690   -6.8270 C   0  0  0  0  0  0  0  0  0  0  0  0
  -22.7510   29.9230   -5.7550 C   0  0  0  0  0  0  0  0  0  0  0  0
  1  6  1  0  0  0  0
  1  5  1  0  0  0  0
  1  2  1  0  0  0  0
  2  3  2  0  0  0  0
  3  4  1  0  0  0  0
  4  5  2  0  0  0  0
M  END
>  <COMPND>
    UNNAMED

>  <AUTHOR>
    GENERATED BY OPEN BABEL 2.4.90

>  <MASTER>
        0    0    0    0    0    0    0    0    6    0    6    0

