__4nvh_B_rec_4jmz_1m2_lig_min.pdb
 OpenBabel10181912073D

 11 12  0  0  0  0  0  0  0  0999 V2000
  -22.6910   33.1380   -5.9180 C   0  0  0  0  0  0  0  0  0  0  0  0
  -22.6150   32.7520   -4.6030 N   0  0  0  0  0  0  0  0  0  0  0  0
  -22.5030   31.3790   -4.5690 C   0  0  0  0  0  0  0  0  0  0  0  0
  -22.3740   30.4490   -3.4770 C   0  0  0  0  0  0  0  0  0  0  0  0
  -22.2910   29.0980   -3.7670 C   0  0  0  0  0  0  0  0  0  0  0  0
  -22.2850   28.6680   -5.0980 C   0  0  0  0  0  0  0  0  0  0  0  0
  -22.3730   29.5810   -6.1620 C   0  0  0  0  0  0  0  0  0  0  0  0
  -22.5000   30.9430   -5.8740 C   0  0  0  0  0  0  0  0  0  0  0  0
  -22.6240   32.0410   -6.6900 N   0  0  0  0  0  0  0  0  0  0  0  0
  -21.8610   35.5230   -5.9760 C   0  0  0  0  0  0  0  0  0  0  0  0
  -22.8030   34.5090   -6.4220 N   0  0  0  0  0  0  0  0  0  0  0  0
  1 11  1  0  0  0  0
  1  9  2  0  0  0  0
  1  2  2  0  0  0  0
  2  3  1  0  0  0  0
  3  8  2  0  0  0  0
  3  4  1  0  0  0  0
  4  5  2  0  0  0  0
  5  6  1  0  0  0  0
  6  7  2  0  0  0  0
  7  8  1  0  0  0  0
  8  9  1  0  0  0  0
 10 11  1  0  0  0  0
M  END
>  <COMPND>
    UNNAMED

>  <AUTHOR>
    GENERATED BY OPEN BABEL 2.4.90

>  <MASTER>
        0    0    0    0    0    0    0    0   11    0   11    0

