__4nvh_B_rec_1aed_dti_lig_min.pdb
 OpenBabel10181912393D

  7  7  0  0  0  0  0  0  0  0999 V2000
  -22.2510   31.3970   -4.3330 N   0  0  0  0  0  0  0  0  0  0  0  0
  -22.5920   31.0880   -5.6570 C   0  0  0  0  0  0  0  0  0  0  0  0
  -22.3860   28.8750   -4.3600 S   0  0  0  0  0  0  0  0  0  0  0  0
  -22.1120   30.3360   -3.5460 C   0  0  0  0  0  0  0  0  0  0  0  0
  -22.7030   29.7410   -5.8240 C   0  0  0  0  0  0  0  0  0  0  0  0
  -22.7920   32.1600   -6.6810 C   0  0  0  0  0  0  0  0  0  0  0  0
  -22.0600   32.7810   -3.8530 C   0  0  0  0  0  0  0  0  0  0  0  0
  1  2  1  0  0  0  0
  1  7  1  0  0  0  0
  1  4  1  0  0  0  0
  2  6  1  0  0  0  0
  2  5  2  0  0  0  0
  3  5  1  0  0  0  0
  3  4  1  0  0  0  0
M  END
>  <COMPND>
    UNNAMED

>  <AUTHOR>
    GENERATED BY OPEN BABEL 2.4.90

>  <MASTER>
        0    0    0    0    0    0    0    0    7    0    7    0

