__4nvi_B_rec_4jqj_1lm_lig_docked.pdb
 OpenBabel10181916113D

 11 12  0  0  0  0  0  0  0  0999 V2000
  -22.5370   29.7960   -6.0900 C   0  0  0  0  0  0  0  0  0  0  0  0
  -22.2750   29.5010   -4.7440 C   0  0  0  0  0  0  0  0  0  0  0  0
  -22.0190   30.5090   -3.8490 C   0  0  0  0  0  0  0  0  0  0  0  0
  -22.0040   31.8560   -4.3420 C   0  0  0  0  0  0  0  0  0  0  0  0
  -22.2680   32.1510   -5.6520 C   0  0  0  0  0  0  0  0  0  0  0  0
  -22.5300   31.0940   -6.5620 C   0  0  0  0  0  0  0  0  0  0  0  0
  -22.2400   33.4880   -6.1380 C   0  0  0  0  0  0  0  0  0  0  0  0
  -21.9850   34.5080   -5.2290 C   0  0  0  0  0  0  0  0  0  0  0  0
  -21.6690   34.1760   -3.9190 C   0  0  0  0  0  0  0  0  0  0  0  0
  -21.6740   32.8880   -3.4850 N   0  0  0  0  0  0  0  0  0  0  0  0
  -22.5390   33.8050   -7.4950 N   0  0  0  0  0  0  0  0  0  0  0  0
  1  6  2  0  0  0  0
  1  2  1  0  0  0  0
  2  3  2  0  0  0  0
  3  4  1  0  0  0  0
  4  5  2  0  0  0  0
  4 10  1  0  0  0  0
  5  6  1  0  0  0  0
  5  7  1  0  0  0  0
  7 11  1  0  0  0  0
  7  8  2  0  0  0  0
  8  9  1  0  0  0  0
  9 10  2  0  0  0  0
M  END
>  <MODEL>
      17

>  <COMPND>
    UNNAMED

>  <AUTHOR>
    GENERATED BY OPEN BABEL 2.4.90

>  <MASTER>
        0    0    0    0    0    0    0    0   11    0   11    0

