__4nvj_B_rec_4jn0_1mj_lig_docked.pdb
 OpenBabel10181921503D

 11 12  0  0  0  0  0  0  0  0999 V2000
  -22.5150   29.6980   -5.0280 C   0  0  0  0  0  0  0  0  0  0  0  0
  -22.2760   29.8310   -3.6740 C   0  0  0  0  0  0  0  0  0  0  0  0
  -22.2720   31.1400   -3.3440 N   0  0  0  0  0  0  0  0  0  0  0  0
  -22.5020   31.8510   -4.4360 C   0  0  0  0  0  0  0  0  0  0  0  0
  -22.6660   30.9930   -5.5300 C   0  0  0  0  0  0  0  0  0  0  0  0
  -22.9090   31.4620   -6.7620 N   0  0  0  0  0  0  0  0  0  0  0  0
  -23.0070   32.7830   -6.9810 C   0  0  0  0  0  0  0  0  0  0  0  0
  -22.8600   33.7170   -5.9390 C   0  0  0  0  0  0  0  0  0  0  0  0
  -22.6030   33.2270   -4.6610 C   0  0  0  0  0  0  0  0  0  0  0  0
  -22.9450   35.1790   -6.1740 C   0  0  0  0  0  0  0  0  0  0  0  0
  -24.0180   35.7080   -6.1830 O   0  0  0  0  0  0  0  0  0  0  0  0
  1  5  2  0  0  0  0
  1  2  1  0  0  0  0
  2  3  1  0  0  0  0
  3  4  2  0  0  0  0
  4  5  1  0  0  0  0
  4  9  1  0  0  0  0
  5  6  1  0  0  0  0
  6  7  2  0  0  0  0
  7  8  1  0  0  0  0
  8 10  1  0  0  0  0
  8  9  2  0  0  0  0
 10 11  2  0  0  0  0
M  END
>  <MODEL>
       6

>  <COMPND>
    UNNAMED

>  <AUTHOR>
    GENERATED BY OPEN BABEL 2.4.90

>  <MASTER>
        0    0    0    0    0    0    0    0   11    0   11    0

