__4nvj_B_rec_4jms_1lx_lig_docked.pdb
 OpenBabel10181921533D

 10 11  0  0  0  0  0  0  0  0999 V2000
  -22.3820   29.6480   -4.3460 C   0  0  0  0  0  0  0  0  0  0  0  0
  -22.2270   30.6220   -3.4020 C   0  0  0  0  0  0  0  0  0  0  0  0
  -22.3760   31.9190   -3.7810 C   0  0  0  0  0  0  0  0  0  0  0  0
  -22.6620   32.2330   -5.0790 N   0  0  0  0  0  0  0  0  0  0  0  0
  -22.9070   33.4660   -5.6470 C   0  0  0  0  0  0  0  0  0  0  0  0
  -23.1140   33.1870   -7.0160 C   0  0  0  0  0  0  0  0  0  0  0  0
  -23.0010   31.8760   -7.2020 N   0  0  0  0  0  0  0  0  0  0  0  0
  -22.7730   31.2920   -6.0130 C   0  0  0  0  0  0  0  0  0  0  0  0
  -22.6160   29.9370   -5.6740 C   0  0  0  0  0  0  0  0  0  0  0  0
  -22.2200   32.9890   -2.8920 N   0  0  0  0  0  0  0  0  0  0  0  0
  1  9  2  0  0  0  0
  1  2  1  0  0  0  0
  2  3  2  0  0  0  0
  3  4  1  0  0  0  0
  3 10  1  0  0  0  0
  4  8  1  0  0  0  0
  4  5  1  0  0  0  0
  5  6  2  0  0  0  0
  6  7  1  0  0  0  0
  7  8  2  0  0  0  0
  8  9  1  0  0  0  0
M  END
>  <MODEL>
       2

>  <COMPND>
    UNNAMED

>  <AUTHOR>
    GENERATED BY OPEN BABEL 2.4.90

>  <MASTER>
        0    0    0    0    0    0    0    0   10    0   10    0

