__4nvj_B_rec_4jmz_1m2_lig_min.pdb
 OpenBabel10181914163D

 11 12  0  0  0  0  0  0  0  0999 V2000
  -22.9770   33.0040   -6.2480 C   0  0  0  0  0  0  0  0  0  0  0  0
  -22.8160   32.7790   -4.9030 N   0  0  0  0  0  0  0  0  0  0  0  0
  -22.6660   31.4220   -4.7150 C   0  0  0  0  0  0  0  0  0  0  0  0
  -22.4510   30.6320   -3.5310 C   0  0  0  0  0  0  0  0  0  0  0  0
  -22.3480   29.2580   -3.6630 C   0  0  0  0  0  0  0  0  0  0  0  0
  -22.4060   28.6730   -4.9330 C   0  0  0  0  0  0  0  0  0  0  0  0
  -22.5790   29.4510   -6.0900 C   0  0  0  0  0  0  0  0  0  0  0  0
  -22.7250   30.8350   -5.9570 C   0  0  0  0  0  0  0  0  0  0  0  0
  -22.9240   31.8250   -6.8880 N   0  0  0  0  0  0  0  0  0  0  0  0
  -22.0290   35.2190   -7.0080 C   0  0  0  0  0  0  0  0  0  0  0  0
  -23.1530   34.3040   -6.9020 N   0  0  0  0  0  0  0  0  0  0  0  0
  1 11  1  0  0  0  0
  1  9  2  0  0  0  0
  1  2  2  0  0  0  0
  2  3  1  0  0  0  0
  3  8  2  0  0  0  0
  3  4  1  0  0  0  0
  4  5  2  0  0  0  0
  5  6  1  0  0  0  0
  6  7  2  0  0  0  0
  7  8  1  0  0  0  0
  8  9  1  0  0  0  0
 10 11  1  0  0  0  0
M  END
>  <COMPND>
    UNNAMED

>  <AUTHOR>
    GENERATED BY OPEN BABEL 2.4.90

>  <MASTER>
        0    0    0    0    0    0    0    0   11    0   11    0

