__4nvk_B_rec_5u5v_7wa_lig_min.pdb
 OpenBabel10181910153D

 10 11  0  0  0  0  0  0  0  0999 V2000
  -22.1020   31.9440   -5.0760 C   0  0  0  0  0  0  0  0  0  0  0  0
  -21.7790   31.6900   -7.4930 N   0  0  0  0  0  0  0  0  0  0  0  0
  -21.9530   31.1430   -6.2360 C   0  0  0  0  0  0  0  0  0  0  0  0
  -22.0130   29.7630   -6.0480 C   0  0  0  0  0  0  0  0  0  0  0  0
  -22.1890   29.1750   -4.7790 C   0  0  0  0  0  0  0  0  0  0  0  0
  -22.3130   29.9210   -3.6420 C   0  0  0  0  0  0  0  0  0  0  0  0
  -22.2600   31.3030   -3.8170 C   0  0  0  0  0  0  0  0  0  0  0  0
  -22.3230   32.3290   -2.8700 N   0  0  0  0  0  0  0  0  0  0  0  0
  -22.2000   33.5180   -3.5650 C   0  0  0  0  0  0  0  0  0  0  0  0
  -22.0610   33.3390   -4.8870 N   0  0  0  0  0  0  0  0  0  0  0  0
  1  3  2  0  0  0  0
  1 10  1  0  0  0  0
  1  7  1  0  0  0  0
  2  3  1  0  0  0  0
  3  4  1  0  0  0  0
  4  5  1  0  0  0  0
  5  6  2  0  0  0  0
  6  7  1  0  0  0  0
  7  8  2  0  0  0  0
  8  9  1  0  0  0  0
  9 10  2  0  0  0  0
M  END
>  <COMPND>
    UNNAMED

>  <AUTHOR>
    GENERATED BY OPEN BABEL 2.4.90

>  <MASTER>
        0    0    0    0    0    0    0    0   10    0   10    0

