__4nvl_A_rec_5u60_7vs_lig_min.pdb
 OpenBabel10181910203D

 12 13  0  0  0  0  0  0  0  0999 V2000
  -22.5870   34.1740   -5.6520 C   0  0  0  0  0  0  0  0  0  0  0  0
  -23.3420   34.3440   -6.7930 C   0  0  0  0  0  0  0  0  0  0  0  0
  -24.0040   33.2550   -7.3430 C   0  0  0  0  0  0  0  0  0  0  0  0
  -23.9850   32.0260   -6.8480 N   0  0  0  0  0  0  0  0  0  0  0  0
  -23.2530   31.8190   -5.7050 C   0  0  0  0  0  0  0  0  0  0  0  0
  -23.2410   30.5210   -5.1390 C   0  0  0  0  0  0  0  0  0  0  0  0
  -22.4810   30.2580   -4.0300 C   0  0  0  0  0  0  0  0  0  0  0  0
  -21.7730   31.2720   -3.3970 C   0  0  0  0  0  0  0  0  0  0  0  0
  -21.7850   32.5440   -3.8960 C   0  0  0  0  0  0  0  0  0  0  0  0
  -22.5420   32.8610   -5.0600 C   0  0  0  0  0  0  0  0  0  0  0  0
  -22.5060   36.5520   -5.1770 N   0  0  0  0  0  0  0  0  0  0  0  0
  -21.9620   35.2280   -5.0560 N   0  0  0  0  0  0  0  0  0  0  0  0
  1  2  2  0  0  0  0
  1 10  1  0  0  0  0
  1 12  1  0  0  0  0
  2  3  1  0  0  0  0
  3  4  2  0  0  0  0
  4  5  1  0  0  0  0
  5  6  2  0  0  0  0
  5 10  1  0  0  0  0
  6  7  1  0  0  0  0
  7  8  2  0  0  0  0
  8  9  1  0  0  0  0
  9 10  2  0  0  0  0
 11 12  1  0  0  0  0
M  END
>  <COMPND>
    UNNAMED

>  <AUTHOR>
    GENERATED BY OPEN BABEL 2.4.90

>  <MASTER>
        0    0    0    0    0    0    0    0   12    0   12    0

