__4nvl_A_rec_4nvo_556_lig_min.pdb
 OpenBabel10181912123D

 13 15  0  0  0  0  0  0  0  0999 V2000
  -22.3750   30.1780   -4.2960 C   0  0  0  0  0  0  0  0  0  0  0  0
  -22.4910   29.8710   -5.7680 C   0  0  0  0  0  0  0  0  0  0  0  0
  -22.6470   31.2190   -6.3930 C   0  0  0  0  0  0  0  0  0  0  0  0
  -22.2180   32.1630   -5.3470 N   0  0  0  0  0  0  0  0  0  0  0  0
  -22.0720   31.5370   -4.1780 C   0  0  0  0  0  0  0  0  0  0  0  0
  -21.6880   32.4460   -3.2800 N   0  0  0  0  0  0  0  0  0  0  0  0
  -21.5890   33.6290   -3.8750 C   0  0  0  0  0  0  0  0  0  0  0  0
  -21.9190   33.4400   -5.1430 C   0  0  0  0  0  0  0  0  0  0  0  0
  -21.9480   34.3880   -6.0800 C   0  0  0  0  0  0  0  0  0  0  0  0
  -21.9010   36.0280   -5.8290 S   0  0  0  0  0  0  0  0  0  0  0  0
  -21.9790   36.4280   -7.4310 C   0  0  0  0  0  0  0  0  0  0  0  0
  -22.0430   35.2870   -8.1270 C   0  0  0  0  0  0  0  0  0  0  0  0
  -22.0290   34.1590   -7.3930 C   0  0  0  0  0  0  0  0  0  0  0  0
  1  2  1  0  0  0  0
  1  5  1  0  0  0  0
  2  3  1  0  0  0  0
  3  4  1  0  0  0  0
  4  8  1  0  0  0  0
  4  5  1  0  0  0  0
  5  6  2  0  0  0  0
  6  7  1  0  0  0  0
  7  8  2  0  0  0  0
  8  9  1  0  0  0  0
  9 13  2  0  0  0  0
  9 10  1  0  0  0  0
 10 11  1  0  0  0  0
 11 12  2  0  0  0  0
 12 13  1  0  0  0  0
M  END
>  <COMPND>
    UNNAMED

>  <AUTHOR>
    GENERATED BY OPEN BABEL 2.4.90

>  <MASTER>
        0    0    0    0    0    0    0    0   13    0   13    0

