__4nvm_B_rec_1ac8_tmz_lig_it1_it2_docked.pdb
 OpenBabel10231911343D

  8  8  0  0  0  0  0  0  0  0999 V2000
  -22.2840   29.2260   -2.8000 S   0  0  0  0  0  0  0  0  0  0  0  0
  -21.9930   30.7430   -1.9720 C   0  0  0  0  0  0  0  0  0  0  0  0
  -21.6550   31.7010   -2.8570 N   0  0  0  0  0  0  0  0  0  0  0  0
  -21.6450   31.2240   -4.1910 C   0  0  0  0  0  0  0  0  0  0  0  0
  -21.9100   29.8760   -4.3300 C   0  0  0  0  0  0  0  0  0  0  0  0
  -21.3360   32.9610   -2.5000 C   0  0  0  0  0  0  0  0  0  0  0  0
  -21.2020   32.1820   -5.2330 C   0  0  0  0  0  0  0  0  0  0  0  0
  -22.0560   29.0270   -5.5690 C   0  0  0  0  0  0  0  0  0  0  0  0
  1  5  1  0  0  0  0
  1  2  1  0  0  0  0
  2  3  1  0  0  0  0
  3  4  1  0  0  0  0
  3  6  1  0  0  0  0
  4  7  1  0  0  0  0
  4  5  2  0  0  0  0
  5  8  1  0  0  0  0
M  END
>  <MODEL>
       2

>  <COMPND>
    UNNAMED

>  <AUTHOR>
    GENERATED BY OPEN BABEL 2.4.90

>  <MASTER>
        0    0    0    0    0    0    0    0    8    0    8    0

