__4nvo_B_rec_4nvk_2ny_lig_docked.pdb
 OpenBabel10181917563D

 16 17  0  0  0  0  0  0  0  0999 V2000
  -22.3500   33.9450   -6.1640 C   0  0  0  0  0  0  0  0  0  0  0  0
  -22.1760   34.1590   -4.8180 N   0  0  0  0  0  0  0  0  0  0  0  0
  -22.4570   32.6840   -6.6830 N   0  0  0  0  0  0  0  0  0  0  0  0
  -22.4150   31.5750   -5.8930 C   0  0  0  0  0  0  0  0  0  0  0  0
  -22.5060   30.2800   -6.4360 C   0  0  0  0  0  0  0  0  0  0  0  0
  -22.4690   29.1670   -5.6340 C   0  0  0  0  0  0  0  0  0  0  0  0
  -22.3170   29.3200   -4.2540 C   0  0  0  0  0  0  0  0  0  0  0  0
  -22.1940   30.6080   -3.6710 C   0  0  0  0  0  0  0  0  0  0  0  0
  -22.2730   31.7460   -4.4990 C   0  0  0  0  0  0  0  0  0  0  0  0
  -22.1500   33.0880   -4.0360 C   0  0  0  0  0  0  0  0  0  0  0  0
  -21.9560   33.3220   -2.7650 N   0  0  0  0  0  0  0  0  0  0  0  0
  -22.3000   35.0180   -6.9440 N   0  0  0  0  0  0  0  0  0  0  0  0
  -22.1590   37.1300   -5.5510 C   0  0  0  0  0  0  0  0  0  0  0  0
  -22.9740   36.2750   -6.5670 C   0  0  0  0  0  0  0  0  0  0  0  0
  -21.3940   35.0380   -8.0940 C   0  0  0  0  0  0  0  0  0  0  0  0
  -21.4360   36.4500   -8.7060 C   0  0  0  0  0  0  0  0  0  0  0  0
  1 12  1  0  0  0  0
  1  3  1  0  0  0  0
  1  2  2  0  0  0  0
  2 10  1  0  0  0  0
  3  4  1  0  0  0  0
  4  5  2  0  0  0  0
  4  9  1  0  0  0  0
  5  6  1  0  0  0  0
  6  7  2  0  0  0  0
  7  8  1  0  0  0  0
  8  9  2  0  0  0  0
  9 10  1  0  0  0  0
 10 11  2  0  0  0  0
 12 15  1  0  0  0  0
 12 14  1  0  0  0  0
 13 14  1  0  0  0  0
 15 16  1  0  0  0  0
M  END
>  <MODEL>
       3

>  <COMPND>
    UNNAMED

>  <AUTHOR>
    GENERATED BY OPEN BABEL 2.4.90

>  <MASTER>
        0    0    0    0    0    0    0    0   16    0   16    0

