__4nvo_B_rec_1aet_1mz_lig_docked.pdb
 OpenBabel10181917573D

  6  6  0  0  0  0  0  0  0  0999 V2000
  -22.2230   29.8150   -4.9300 N   0  0  0  0  0  0  0  0  0  0  0  0
  -22.2300   29.5850   -3.6370 C   0  0  0  0  0  0  0  0  0  0  0  0
  -22.0860   30.7350   -3.0190 N   0  0  0  0  0  0  0  0  0  0  0  0
  -21.9430   31.6960   -3.8960 C   0  0  0  0  0  0  0  0  0  0  0  0
  -22.0520   31.0970   -5.1550 C   0  0  0  0  0  0  0  0  0  0  0  0
  -22.3570   28.7710   -6.0210 C   0  0  0  0  0  0  0  0  0  0  0  0
  1  6  1  0  0  0  0
  1  5  1  0  0  0  0
  1  2  1  0  0  0  0
  2  3  2  0  0  0  0
  3  4  1  0  0  0  0
  4  5  2  0  0  0  0
M  END
>  <MODEL>
      13

>  <COMPND>
    UNNAMED

>  <AUTHOR>
    GENERATED BY OPEN BABEL 2.4.90

>  <MASTER>
        0    0    0    0    0    0    0    0    6    0    6    0

