__5cic_A_rec_1aeg_4ap_lig_min.pdb
 OpenBabel10181913453D

  7  7  0  0  0  0  0  0  0  0999 V2000
  -22.2850   30.4060   -2.4990 N   0  0  0  0  0  0  0  0  0  0  0  0
  -22.5810   31.6330   -3.0070 C   0  0  0  0  0  0  0  0  0  0  0  0
  -22.6720   31.8220   -4.3590 C   0  0  0  0  0  0  0  0  0  0  0  0
  -22.4520   30.7280   -5.2470 C   0  0  0  0  0  0  0  0  0  0  0  0
  -22.1460   29.4620   -4.6670 C   0  0  0  0  0  0  0  0  0  0  0  0
  -22.0700   29.3360   -3.3080 C   0  0  0  0  0  0  0  0  0  0  0  0
  -22.5350   30.8840   -6.5740 N   0  0  0  0  0  0  0  0  0  0  0  0
  1  2  2  0  0  0  0
  1  6  1  0  0  0  0
  2  3  1  0  0  0  0
  3  4  2  0  0  0  0
  4  7  1  0  0  0  0
  4  5  1  0  0  0  0
  5  6  2  0  0  0  0
M  END
>  <COMPND>
    UNNAMED

>  <AUTHOR>
    GENERATED BY OPEN BABEL 2.4.90

>  <MASTER>
        0    0    0    0    0    0    0    0    7    0    7    0

