__5u5v_A_rec_1ac4_tmt_lig_min.pdb
 OpenBabel10181913423D

  8  8  0  0  1  0  0  0  0  0999 V2000
  -22.3740   28.7130   -3.6040 S   0  0  0  0  0  0  0  0  0  0  0  0
  -22.2380   29.1110   -5.2600 C   0  0  2  0  0  0  0  0  0  0  0  0
  -22.2260   30.4380   -5.4370 N   0  0  0  0  0  0  0  0  0  0  0  0
  -22.3210   31.1930   -4.2570 C   0  0  0  0  0  0  0  0  0  0  0  0
  -22.4090   30.3860   -3.1650 C   0  0  0  0  0  0  0  0  0  0  0  0
  -22.1490   28.0860   -6.3440 C   0  0  0  0  0  0  0  0  0  0  0  0
  -22.1130   31.0840   -6.7590 C   0  0  0  0  0  0  0  0  0  0  0  0
  -22.3200   32.6880   -4.2860 C   0  0  0  0  0  0  0  0  0  0  0  0
  1  2  1  0  0  0  0
  1  5  1  0  0  0  0
  2  6  1  6  0  0  0
  2  3  1  0  0  0  0
  3  7  1  0  0  0  0
  3  4  1  0  0  0  0
  4  8  1  0  0  0  0
  4  5  2  0  0  0  0
M  END
>  <COMPND>
    UNNAMED

>  <AUTHOR>
    GENERATED BY OPEN BABEL 2.4.90

>  <MASTER>
        0    0    0    0    0    0    0    0    8    0    8    0

