__5u5v_A_rec_1aej_nvi_lig_min.pdb
 OpenBabel10181914123D

  7  7  0  0  0  0  0  0  0  0999 V2000
  -22.2060   29.9280   -4.4290 N   0  0  0  0  0  0  0  0  0  0  0  0
  -22.3690   30.1300   -3.1140 C   0  0  0  0  0  0  0  0  0  0  0  0
  -22.3030   31.4470   -2.8880 N   0  0  0  0  0  0  0  0  0  0  0  0
  -22.0810   32.1150   -4.0780 C   0  0  0  0  0  0  0  0  0  0  0  0
  -22.0160   31.1600   -5.0450 C   0  0  0  0  0  0  0  0  0  0  0  0
  -22.2160   28.6590   -5.1010 C   0  0  0  0  0  0  0  0  0  0  0  0
  -21.9960   28.5350   -6.4050 C   0  0  0  0  0  0  0  0  0  0  0  0
  1  6  1  0  0  0  0
  1  5  1  0  0  0  0
  1  2  1  0  0  0  0
  2  3  2  0  0  0  0
  3  4  1  0  0  0  0
  4  5  2  0  0  0  0
  6  7  2  0  0  0  0
M  END
>  <COMPND>
    UNNAMED

>  <AUTHOR>
    GENERATED BY OPEN BABEL 2.4.90

>  <MASTER>
        0    0    0    0    0    0    0    0    7    0    7    0

