__5u5v_A_rec_1aen_25t_lig_it1_it2_docked.pdb
 OpenBabel10231911233D

  7  7  0  0  0  0  0  0  0  0999 V2000
  -22.0100   30.8750   -3.9100 S   0  0  0  0  0  0  0  0  0  0  0  0
  -22.0920   29.4800   -4.0120 C   0  0  0  0  0  0  0  0  0  0  0  0
  -22.3110   28.9640   -2.7290 N   0  0  0  0  0  0  0  0  0  0  0  0
  -22.3650   30.0400   -1.8330 C   0  0  0  0  0  0  0  0  0  0  0  0
  -22.1790   31.2210   -2.5640 C   0  0  0  0  0  0  0  0  0  0  0  0
  -21.9670   28.6900   -5.2570 N   0  0  0  0  0  0  0  0  0  0  0  0
  -22.1640   32.6490   -1.9870 C   0  0  0  0  0  0  0  0  0  0  0  0
  1  5  1  0  0  0  0
  1  2  1  0  0  0  0
  2  6  1  0  0  0  0
  2  3  2  0  0  0  0
  3  4  1  0  0  0  0
  4  5  2  0  0  0  0
  5  7  1  0  0  0  0
M  END
>  <MODEL>
      16

>  <COMPND>
    UNNAMED

>  <AUTHOR>
    GENERATED BY OPEN BABEL 2.4.90

>  <MASTER>
        0    0    0    0    0    0    0    0    7    0    7    0

