__5u5w_A_rec_1aeb_3mt_lig_docked.pdb
 OpenBabel10191900003D

  6  6  0  0  0  0  0  0  0  0999 V2000
  -22.1750   32.2130   -4.2640 C   0  0  0  0  0  0  0  0  0  0  0  0
  -22.1430   30.8250   -4.7760 N   0  0  0  0  0  0  0  0  0  0  0  0
  -21.9290   30.5280   -6.1140 C   0  0  0  0  0  0  0  0  0  0  0  0
  -21.9380   29.1940   -6.3590 C   0  0  0  0  0  0  0  0  0  0  0  0
  -22.2170   28.3010   -4.9010 S   0  0  0  0  0  0  0  0  0  0  0  0
  -22.3100   29.7480   -4.0160 C   0  0  0  0  0  0  0  0  0  0  0  0
  1  2  1  0  0  0  0
  2  3  1  0  0  0  0
  2  6  1  0  0  0  0
  3  4  2  0  0  0  0
  4  5  1  0  0  0  0
  5  6  1  0  0  0  0
M  END
>  <MODEL>
       8

>  <COMPND>
    UNNAMED

>  <AUTHOR>
    GENERATED BY OPEN BABEL 2.4.90

>  <MASTER>
        0    0    0    0    0    0    0    0    6    0    6    0

