__5u5y_A_rec_1aeb_3mt_lig_docked.pdb
 OpenBabel10181919213D

  6  6  0  0  0  0  0  0  0  0999 V2000
  -22.1510   31.8980   -4.0650 C   0  0  0  0  0  0  0  0  0  0  0  0
  -22.1280   30.5010   -4.5530 N   0  0  0  0  0  0  0  0  0  0  0  0
  -22.2910   29.4130   -3.7090 C   0  0  0  0  0  0  0  0  0  0  0  0
  -22.2380   28.2290   -4.3700 C   0  0  0  0  0  0  0  0  0  0  0  0
  -21.9800   28.4800   -6.0650 S   0  0  0  0  0  0  0  0  0  0  0  0
  -21.9560   30.1610   -5.8260 C   0  0  0  0  0  0  0  0  0  0  0  0
  1  2  1  0  0  0  0
  2  3  1  0  0  0  0
  2  6  1  0  0  0  0
  3  4  2  0  0  0  0
  4  5  1  0  0  0  0
  5  6  1  0  0  0  0
M  END
>  <MODEL>
      15

>  <COMPND>
    UNNAMED

>  <AUTHOR>
    GENERATED BY OPEN BABEL 2.4.90

>  <MASTER>
        0    0    0    0    0    0    0    0    6    0    6    0

