__5u5y_A_rec_5u5y_7w4_lig_min.pdb
 OpenBabel10181911233D

 11 12  0  0  0  0  0  0  0  0999 V2000
  -23.1450   33.4730   -8.2830 C   0  0  0  0  0  0  0  0  0  0  0  0
  -22.9350   32.5690   -7.0970 C   0  0  0  0  0  0  0  0  0  0  0  0
  -22.6980   31.2230   -7.2750 N   0  0  0  0  0  0  0  0  0  0  0  0
  -22.5660   30.6720   -6.0450 C   0  0  0  0  0  0  0  0  0  0  0  0
  -22.2860   29.3700   -5.6680 C   0  0  0  0  0  0  0  0  0  0  0  0
  -22.1840   29.0950   -4.3140 C   0  0  0  0  0  0  0  0  0  0  0  0
  -22.3190   30.0990   -3.3800 C   0  0  0  0  0  0  0  0  0  0  0  0
  -22.5970   31.3850   -3.7910 C   0  0  0  0  0  0  0  0  0  0  0  0
  -22.7010   31.6690   -5.1210 N   0  0  0  0  0  0  0  0  0  0  0  0
  -22.9440   32.8640   -5.7360 C   0  0  0  0  0  0  0  0  0  0  0  0
  -23.1600   34.0170   -5.1400 N   0  0  0  0  0  0  0  0  0  0  0  0
  1  2  1  0  0  0  0
  2  3  1  0  0  0  0
  2 10  2  0  0  0  0
  3  4  2  0  0  0  0
  4  5  1  0  0  0  0
  4  9  1  0  0  0  0
  5  6  2  0  0  0  0
  6  7  1  0  0  0  0
  7  8  2  0  0  0  0
  8  9  1  0  0  0  0
  9 10  1  0  0  0  0
 10 11  1  0  0  0  0
M  END
>  <COMPND>
    UNNAMED

>  <AUTHOR>
    GENERATED BY OPEN BABEL 2.4.90

>  <MASTER>
        0    0    0    0    0    0    0    0   11    0   11    0

