__5u5y_A_rec_5ug2_86j_lig_min.pdb
 OpenBabel10181911043D

 12 13  0  0  0  0  0  0  0  0999 V2000
  -22.8480   32.9540   -5.8520 C   0  0  0  0  0  0  0  0  0  0  0  0
  -23.0110   33.9360   -8.2200 C   0  0  0  0  0  0  0  0  0  0  0  0
  -22.8250   32.8510   -7.2250 C   0  0  0  0  0  0  0  0  0  0  0  0
  -22.6010   31.5480   -7.5850 N   0  0  0  0  0  0  0  0  0  0  0  0
  -22.4740   30.8460   -6.4550 C   0  0  0  0  0  0  0  0  0  0  0  0
  -22.2190   29.4760   -6.2470 C   0  0  0  0  0  0  0  0  0  0  0  0
  -22.1360   28.9830   -4.9930 C   0  0  0  0  0  0  0  0  0  0  0  0
  -22.3040   29.8770   -3.9090 C   0  0  0  0  0  0  0  0  0  0  0  0
  -22.2210   29.3890   -2.6930 F   0  0  0  0  0  0  0  0  0  0  0  0
  -22.5450   31.1960   -4.0480 C   0  0  0  0  0  0  0  0  0  0  0  0
  -22.6210   31.6880   -5.3360 N   0  0  0  0  0  0  0  0  0  0  0  0
  -23.0520   33.9910   -5.0180 N   0  0  0  0  0  0  0  0  0  0  0  0
  1  3  2  0  0  0  0
  1 11  1  0  0  0  0
  1 12  1  0  0  0  0
  2  3  1  0  0  0  0
  3  4  1  0  0  0  0
  4  5  2  0  0  0  0
  5  6  1  0  0  0  0
  5 11  1  0  0  0  0
  6  7  2  0  0  0  0
  7  8  1  0  0  0  0
  8 10  2  0  0  0  0
  8  9  1  0  0  0  0
 10 11  1  0  0  0  0
M  END
>  <COMPND>
    UNNAMED

>  <AUTHOR>
    GENERATED BY OPEN BABEL 2.4.90

>  <MASTER>
        0    0    0    0    0    0    0    0   12    0   12    0

