__5u5y_A_rec_5u5w_7w1_lig_docked.pdb
 OpenBabel10181919173D

 12 13  0  0  0  0  0  0  0  0999 V2000
  -22.7300   32.2180   -6.4110 C   0  0  0  0  0  0  0  0  0  0  0  0
  -22.8660   34.7340   -6.2590 C   0  0  0  0  0  0  0  0  0  0  0  0
  -22.6870   33.3740   -5.6350 C   0  0  0  0  0  0  0  0  0  0  0  0
  -22.4740   33.2400   -4.2560 C   0  0  0  0  0  0  0  0  0  0  0  0
  -22.3420   32.1020   -3.6130 N   0  0  0  0  0  0  0  0  0  0  0  0
  -22.3600   30.9440   -4.3710 C   0  0  0  0  0  0  0  0  0  0  0  0
  -22.2140   29.7010   -3.7050 C   0  0  0  0  0  0  0  0  0  0  0  0
  -22.2110   28.5400   -4.4100 C   0  0  0  0  0  0  0  0  0  0  0  0
  -22.3190   28.5580   -5.7860 C   0  0  0  0  0  0  0  0  0  0  0  0
  -22.4990   29.7340   -6.4590 C   0  0  0  0  0  0  0  0  0  0  0  0
  -22.5610   30.9550   -5.7680 C   0  0  0  0  0  0  0  0  0  0  0  0
  -22.9130   32.2470   -7.7530 N   0  0  0  0  0  0  0  0  0  0  0  0
  1 12  1  0  0  0  0
  1 11  2  0  0  0  0
  1  3  1  0  0  0  0
  2  3  1  0  0  0  0
  3  4  2  0  0  0  0
  4  5  1  0  0  0  0
  5  6  2  0  0  0  0
  6 11  1  0  0  0  0
  6  7  1  0  0  0  0
  7  8  2  0  0  0  0
  8  9  1  0  0  0  0
  9 10  2  0  0  0  0
 10 11  1  0  0  0  0
M  END
>  <MODEL>
      14

>  <COMPND>
    UNNAMED

>  <AUTHOR>
    GENERATED BY OPEN BABEL 2.4.90

>  <MASTER>
        0    0    0    0    0    0    0    0   12    0   12    0

