__5u5y_A_rec_4jmz_1m2_lig_min.pdb
 OpenBabel10181913123D

 11 12  0  0  0  0  0  0  0  0999 V2000
  -23.1450   32.6060   -7.1100 C   0  0  0  0  0  0  0  0  0  0  0  0
  -23.1550   32.8640   -5.7610 N   0  0  0  0  0  0  0  0  0  0  0  0
  -22.8350   31.6960   -5.1040 C   0  0  0  0  0  0  0  0  0  0  0  0
  -22.6840   31.3890   -3.7050 C   0  0  0  0  0  0  0  0  0  0  0  0
  -22.3610   30.0920   -3.3450 C   0  0  0  0  0  0  0  0  0  0  0  0
  -22.1420   29.1270   -4.3340 C   0  0  0  0  0  0  0  0  0  0  0  0
  -22.2540   29.4400   -5.6990 C   0  0  0  0  0  0  0  0  0  0  0  0
  -22.6210   30.7370   -6.0660 C   0  0  0  0  0  0  0  0  0  0  0  0
  -22.8240   31.3150   -7.2960 N   0  0  0  0  0  0  0  0  0  0  0  0
  -22.3320   34.3830   -8.7100 C   0  0  0  0  0  0  0  0  0  0  0  0
  -23.4130   33.5640   -8.1850 N   0  0  0  0  0  0  0  0  0  0  0  0
  1 11  1  0  0  0  0
  1  9  2  0  0  0  0
  1  2  2  0  0  0  0
  2  3  1  0  0  0  0
  3  8  2  0  0  0  0
  3  4  1  0  0  0  0
  4  5  2  0  0  0  0
  5  6  1  0  0  0  0
  6  7  2  0  0  0  0
  7  8  1  0  0  0  0
  8  9  1  0  0  0  0
 10 11  1  0  0  0  0
M  END
>  <COMPND>
    UNNAMED

>  <AUTHOR>
    GENERATED BY OPEN BABEL 2.4.90

>  <MASTER>
        0    0    0    0    0    0    0    0   11    0   11    0

