__5u5z_A_rec_5u5y_7w4_lig_min.pdb
 OpenBabel10181910343D

 11 12  0  0  0  0  0  0  0  0999 V2000
  -22.9060   33.5090   -7.7430 C   0  0  0  0  0  0  0  0  0  0  0  0
  -22.7560   32.3940   -6.7420 C   0  0  0  0  0  0  0  0  0  0  0  0
  -22.7070   31.0810   -7.1570 N   0  0  0  0  0  0  0  0  0  0  0  0
  -22.5860   30.3140   -6.0480 C   0  0  0  0  0  0  0  0  0  0  0  0
  -22.4590   28.9420   -5.9130 C   0  0  0  0  0  0  0  0  0  0  0  0
  -22.3250   28.4260   -4.6340 C   0  0  0  0  0  0  0  0  0  0  0  0
  -22.2790   29.2620   -3.5400 C   0  0  0  0  0  0  0  0  0  0  0  0
  -22.4070   30.6230   -3.7110 C   0  0  0  0  0  0  0  0  0  0  0  0
  -22.5410   31.1450   -4.9640 N   0  0  0  0  0  0  0  0  0  0  0  0
  -22.6560   32.4480   -5.3540 C   0  0  0  0  0  0  0  0  0  0  0  0
  -22.6880   33.4980   -4.5610 N   0  0  0  0  0  0  0  0  0  0  0  0
  1  2  1  0  0  0  0
  2  3  1  0  0  0  0
  2 10  2  0  0  0  0
  3  4  2  0  0  0  0
  4  5  1  0  0  0  0
  4  9  1  0  0  0  0
  5  6  2  0  0  0  0
  6  7  1  0  0  0  0
  7  8  2  0  0  0  0
  8  9  1  0  0  0  0
  9 10  1  0  0  0  0
 10 11  1  0  0  0  0
M  END
>  <COMPND>
    UNNAMED

>  <AUTHOR>
    GENERATED BY OPEN BABEL 2.4.90

>  <MASTER>
        0    0    0    0    0    0    0    0   11    0   11    0

