__5u60_A_rec_4nvi_2nw_lig_min.pdb
 OpenBabel10181907033D

 12 13  0  0  0  0  0  0  0  0999 V2000
  -22.7990   35.2830   -6.5810 Br  0  0  0  0  0  0  0  0  0  0  0  0
  -22.6210   33.6160   -5.7420 C   0  0  0  0  0  0  0  0  0  0  0  0
  -22.4790   33.5710   -4.3680 C   0  0  0  0  0  0  0  0  0  0  0  0
  -22.3390   32.3440   -3.7350 N   0  0  0  0  0  0  0  0  0  0  0  0
  -22.3390   31.1950   -4.4230 C   0  0  0  0  0  0  0  0  0  0  0  0
  -22.1930   29.9940   -3.7460 C   0  0  0  0  0  0  0  0  0  0  0  0
  -22.1890   28.7970   -4.4460 C   0  0  0  0  0  0  0  0  0  0  0  0
  -22.3290   28.8110   -5.8270 C   0  0  0  0  0  0  0  0  0  0  0  0
  -22.4730   30.0100   -6.5080 C   0  0  0  0  0  0  0  0  0  0  0  0
  -22.4780   31.2030   -5.8030 C   0  0  0  0  0  0  0  0  0  0  0  0
  -22.6230   32.4220   -6.4470 C   0  0  0  0  0  0  0  0  0  0  0  0
  -22.7590   32.4370   -7.7680 N   0  0  0  0  0  0  0  0  0  0  0  0
  1  2  1  0  0  0  0
  2 11  2  0  0  0  0
  2  3  1  0  0  0  0
  3  4  2  0  0  0  0
  4  5  1  0  0  0  0
  5 10  2  0  0  0  0
  5  6  1  0  0  0  0
  6  7  2  0  0  0  0
  7  8  1  0  0  0  0
  8  9  2  0  0  0  0
  9 10  1  0  0  0  0
 10 11  1  0  0  0  0
 11 12  1  0  0  0  0
M  END
>  <COMPND>
    UNNAMED

>  <AUTHOR>
    GENERATED BY OPEN BABEL 2.4.90

>  <MASTER>
        0    0    0    0    0    0    0    0   12    0   12    0

