__5u60_A_rec_4jms_1lx_lig_docked.pdb
 OpenBabel10181916033D

 10 11  0  0  0  0  0  0  0  0999 V2000
  -22.2590   29.6470   -4.7450 C   0  0  0  0  0  0  0  0  0  0  0  0
  -22.2410   30.5180   -3.6940 C   0  0  0  0  0  0  0  0  0  0  0  0
  -22.4300   31.8410   -3.9460 C   0  0  0  0  0  0  0  0  0  0  0  0
  -22.6190   32.2820   -5.2240 N   0  0  0  0  0  0  0  0  0  0  0  0
  -22.8820   33.5570   -5.6810 C   0  0  0  0  0  0  0  0  0  0  0  0
  -22.9530   33.4210   -7.0840 C   0  0  0  0  0  0  0  0  0  0  0  0
  -22.7510   32.1450   -7.3950 N   0  0  0  0  0  0  0  0  0  0  0  0
  -22.5950   31.4450   -6.2580 C   0  0  0  0  0  0  0  0  0  0  0  0
  -22.3930   30.0700   -6.0510 C   0  0  0  0  0  0  0  0  0  0  0  0
  -22.4120   32.8130   -2.9390 N   0  0  0  0  0  0  0  0  0  0  0  0
  1  9  2  0  0  0  0
  1  2  1  0  0  0  0
  2  3  2  0  0  0  0
  3  4  1  0  0  0  0
  3 10  1  0  0  0  0
  4  8  1  0  0  0  0
  4  5  1  0  0  0  0
  5  6  2  0  0  0  0
  6  7  1  0  0  0  0
  7  8  2  0  0  0  0
  8  9  1  0  0  0  0
M  END
>  <MODEL>
       1

>  <COMPND>
    UNNAMED

>  <AUTHOR>
    GENERATED BY OPEN BABEL 2.4.90

>  <MASTER>
        0    0    0    0    0    0    0    0   10    0   10    0

