__5u60_A_rec_1aeg_4ap_lig_min.pdb
 OpenBabel10181911153D

  7  7  0  0  0  0  0  0  0  0999 V2000
  -22.4770   30.6630   -3.0390 N   0  0  0  0  0  0  0  0  0  0  0  0
  -22.5480   31.9040   -3.5920 C   0  0  0  0  0  0  0  0  0  0  0  0
  -22.3980   32.0740   -4.9410 C   0  0  0  0  0  0  0  0  0  0  0  0
  -22.1620   30.9440   -5.7780 C   0  0  0  0  0  0  0  0  0  0  0  0
  -22.0980   29.6650   -5.1530 C   0  0  0  0  0  0  0  0  0  0  0  0
  -22.2570   29.5590   -3.7990 C   0  0  0  0  0  0  0  0  0  0  0  0
  -22.0120   31.0800   -7.1020 N   0  0  0  0  0  0  0  0  0  0  0  0
  1  2  2  0  0  0  0
  1  6  1  0  0  0  0
  2  3  1  0  0  0  0
  3  4  2  0  0  0  0
  4  7  1  0  0  0  0
  4  5  1  0  0  0  0
  5  6  2  0  0  0  0
M  END
>  <COMPND>
    UNNAMED

>  <AUTHOR>
    GENERATED BY OPEN BABEL 2.4.90

>  <MASTER>
        0    0    0    0    0    0    0    0    7    0    7    0

