__5ug2_A_rec_1aet_1mz_lig_min.pdb
 OpenBabel10181909333D

  6  6  0  0  0  0  0  0  0  0999 V2000
  -22.2030   29.5020   -4.5420 N   0  0  0  0  0  0  0  0  0  0  0  0
  -22.5350   29.6570   -3.2800 C   0  0  0  0  0  0  0  0  0  0  0  0
  -22.5290   30.9430   -3.0130 N   0  0  0  0  0  0  0  0  0  0  0  0
  -22.1580   31.6150   -4.0740 C   0  0  0  0  0  0  0  0  0  0  0  0
  -21.9620   30.6720   -5.0870 C   0  0  0  0  0  0  0  0  0  0  0  0
  -22.0800   28.1810   -5.2740 C   0  0  0  0  0  0  0  0  0  0  0  0
  1  6  1  0  0  0  0
  1  5  1  0  0  0  0
  1  2  1  0  0  0  0
  2  3  2  0  0  0  0
  3  4  1  0  0  0  0
  4  5  2  0  0  0  0
M  END
>  <COMPND>
    UNNAMED

>  <AUTHOR>
    GENERATED BY OPEN BABEL 2.4.90

>  <MASTER>
        0    0    0    0    0    0    0    0    6    0    6    0

