__5ug2_A_rec_4jn0_1mj_lig_min.pdb
 OpenBabel10181913523D

 11 12  0  0  0  0  0  0  0  0999 V2000
  -22.7010   30.1820   -5.2450 C   0  0  0  0  0  0  0  0  0  0  0  0
  -22.3430   30.2440   -3.9120 C   0  0  0  0  0  0  0  0  0  0  0  0
  -22.2010   31.5360   -3.5440 N   0  0  0  0  0  0  0  0  0  0  0  0
  -22.4560   32.3030   -4.5920 C   0  0  0  0  0  0  0  0  0  0  0  0
  -22.7800   31.5030   -5.6940 C   0  0  0  0  0  0  0  0  0  0  0  0
  -23.0800   32.0350   -6.8870 N   0  0  0  0  0  0  0  0  0  0  0  0
  -23.0810   33.3660   -7.0580 C   0  0  0  0  0  0  0  0  0  0  0  0
  -22.7710   34.2460   -6.0040 C   0  0  0  0  0  0  0  0  0  0  0  0
  -22.4560   33.6900   -4.7670 C   0  0  0  0  0  0  0  0  0  0  0  0
  -22.7500   35.7180   -6.1880 C   0  0  0  0  0  0  0  0  0  0  0  0
  -23.7030   36.3620   -5.8570 O   0  0  0  0  0  0  0  0  0  0  0  0
  1  5  2  0  0  0  0
  1  2  1  0  0  0  0
  2  3  1  0  0  0  0
  3  4  2  0  0  0  0
  4  5  1  0  0  0  0
  4  9  1  0  0  0  0
  5  6  1  0  0  0  0
  6  7  2  0  0  0  0
  7  8  1  0  0  0  0
  8 10  1  0  0  0  0
  8  9  2  0  0  0  0
 10 11  2  0  0  0  0
M  END
>  <COMPND>
    UNNAMED

>  <AUTHOR>
    GENERATED BY OPEN BABEL 2.4.90

>  <MASTER>
        0    0    0    0    0    0    0    0   11    0   11    0

