__1qat_B_rec_1djw_cip_lig_min.pdb
 OpenBabel10201906203D

 15 16  0  0  1  0  0  0  0  0999 V2000
   32.6930   18.0120   37.5420 C   0  0  2  0  0  0  0  0  0  0  0  0
   33.1480   19.1640   36.5830 C   0  0  1  0  0  0  0  0  0  0  0  0
   34.6600   19.2980   36.4000 C   0  0  1  0  0  0  0  0  0  0  0  0
   35.3970   17.9740   36.2390 C   0  0  2  0  0  0  0  0  0  0  0  0
   35.0730   17.1250   37.4780 C   0  0  1  0  0  0  0  0  0  0  0  0
   33.6070   16.7480   37.5170 C   0  0  1  0  0  0  0  0  0  0  0  0
   32.3590   19.0650   35.2920 C   0  0  0  0  0  0  0  0  0  0  0  0
   31.3830   17.6810   37.0660 O   0  0  0  0  0  0  0  0  0  0  0  0
   35.0040   20.2220   35.3960 O   0  0  0  0  0  0  0  0  0  0  0  0
   36.7820   18.4220   36.4450 O   0  0  0  0  0  0  0  0  0  0  0  0
   35.8440   15.9400   37.4890 O   0  0  0  0  0  0  0  0  0  0  0  0
   33.5010   16.0400   38.7300 O   0  0  0  0  0  0  0  0  0  0  0  0
   31.4170   17.5570   35.4500 P   0  0  1  0  0  0  0  0  0  0  0  0
   29.9450   17.5420   34.7570 O   0  0  0  0  0  0  0  0  0  0  0  0
   32.2030   16.2410   34.9110 O   0  0  0  0  0  0  0  0  0  0  0  0
  1  8  1  6  0  0  0
  1  2  1  0  0  0  0
  1  6  1  0  0  0  0
  2  7  1  6  0  0  0
  2  3  1  0  0  0  0
  3  9  1  6  0  0  0
  3  4  1  0  0  0  0
  4 10  1  1  0  0  0
  4  5  1  0  0  0  0
  5  6  1  0  0  0  0
  5 11  1  6  0  0  0
  6 12  1  1  0  0  0
  7 13  1  0  0  0  0
  8 13  1  0  0  0  0
 13 14  2  6  0  0  0
 13 15  1  0  0  0  0
M  END
>  <COMPND>
    UNNAMED

>  <AUTHOR>
    GENERATED BY OPEN BABEL 2.4.90

>  <MASTER>
        0    0    0    0    0    0    0    0   15    0   15    0

