__1cz1_A_rec_1eqc_cts_lig_min.pdb
 OpenBabel10181922493D

 13 14  0  0  1  0  0  0  0  0999 V2000
   25.9230    4.9670   -8.0300 C   0  0  0  0  0  0  0  0  0  0  0  0
   26.4670    3.5930   -7.5980 C   0  0  1  0  0  0  0  0  0  0  0  0
   25.3550    2.7320   -6.9890 C   0  0  2  0  0  0  0  0  0  0  0  0
   24.3370    3.6660   -6.3250 C   0  0  1  0  0  0  0  0  0  0  0  0
   23.6060    4.4660   -7.4250 C   0  0  1  0  0  0  0  0  0  0  0  0
   22.7730    5.6760   -6.9720 C   0  0  1  0  0  0  0  0  0  0  0  0
   27.0660    2.9160   -8.6820 O   0  0  0  0  0  0  0  0  0  0  0  0
   25.9730    1.9020   -5.9690 O   0  0  0  0  0  0  0  0  0  0  0  0
   23.3560    2.9660   -5.5890 O   0  0  0  0  0  0  0  0  0  0  0  0
   23.5470    6.5180   -6.1120 O   0  0  0  0  0  0  0  0  0  0  0  0
   24.5170    4.9240   -8.4360 N   0  0  1  0  0  0  0  0  0  0  0  0
   22.5930    6.3620   -8.3510 C   0  0  0  0  0  0  0  0  0  0  0  0
   24.0660    6.2700   -8.8570 C   0  0  0  0  0  0  0  0  0  0  0  0
  1 11  1  0  0  0  0
  1  2  1  0  0  0  0
  2  7  1  6  0  0  0
  2  3  1  0  0  0  0
  3  4  1  0  0  0  0
  3  8  1  1  0  0  0
  4  5  1  0  0  0  0
  4  9  1  6  0  0  0
  5 11  1  0  0  0  0
  5  6  1  0  0  0  0
  6 12  1  0  0  0  0
  6 10  1  0  0  0  0
 11 13  1  0  0  0  0
 12 13  1  0  0  0  0
M  END
>  <COMPND>
    UNNAMED

>  <AUTHOR>
    GENERATED BY OPEN BABEL 2.4.90

>  <MASTER>
        0    0    0    0    0    0    0    0   13    0   13    0

