__4m81_A_rec_4m82_ngb_lig_min.pdb
 OpenBabel10181922393D

 32 34  0  0  1  0  0  0  0  0999 V2000
   27.0020   10.6320   -9.2050 C   0  0  1  0  0  0  0  0  0  0  0  0
   26.2420   11.2340   -8.0310 C   0  0  2  0  0  0  0  0  0  0  0  0
   26.6730   12.5880   -7.8410 O   0  0  0  0  0  0  0  0  0  0  0  0
   26.5340   10.4290   -6.7780 C   0  0  1  0  0  0  0  0  0  0  0  0
   25.7950   10.9480   -5.6650 O   0  0  0  0  0  0  0  0  0  0  0  0
   26.1740    8.9810   -7.0410 C   0  0  2  0  0  0  0  0  0  0  0  0
   26.4450    8.1680   -5.8950 O   0  0  0  0  0  0  0  0  0  0  0  0
   26.9840    8.4990   -8.2390 C   0  0  2  0  0  0  0  0  0  0  0  0
   26.6100    9.2730   -9.3820 O   0  0  0  0  0  0  0  0  0  0  0  0
   26.6300   11.3510  -10.3580 O   0  0  0  0  0  0  0  0  0  0  0  0
   29.3280   11.9590  -13.4060 C   0  0  0  0  0  0  0  0  0  0  0  0
   27.9850   12.2350  -13.5970 C   0  0  0  0  0  0  0  0  0  0  0  0
   29.7860   11.4820  -12.1860 C   0  0  0  0  0  0  0  0  0  0  0  0
   28.8740   11.2730  -11.1480 C   0  0  0  0  0  0  0  0  0  0  0  0
   27.5280   11.5470  -11.3580 C   0  0  0  0  0  0  0  0  0  0  0  0
   27.0720   12.0260  -12.5790 C   0  0  0  0  0  0  0  0  0  0  0  0
   31.3710   12.4800  -14.2400 O   0  0  0  0  0  0  0  0  0  0  0  0
   30.2100   12.1770  -14.4630 N   0  0  0  0  0  0  0  0  0  0  0  0
   29.8140   12.0570  -15.6130 O   0  0  0  0  0  0  0  0  0  0  0  0
   26.7570    7.0130   -8.4830 C   0  0  0  0  0  0  0  0  0  0  0  0
   25.6110    6.8190   -9.3070 O   0  0  0  0  0  0  0  0  0  0  0  0
   24.6980    5.8820   -8.7200 C   0  0  1  0  0  0  0  0  0  0  0  0
   25.2760    4.4670   -8.7170 C   0  0  2  0  0  0  0  0  0  0  0  0
   25.4680    3.9800  -10.0580 O   0  0  0  0  0  0  0  0  0  0  0  0
   24.3650    3.5350   -7.9370 C   0  0  1  0  0  0  0  0  0  0  0  0
   24.9670    2.2370   -7.9040 O   0  0  0  0  0  0  0  0  0  0  0  0
   24.2710    4.0940   -6.5260 C   0  0  2  0  0  0  0  0  0  0  0  0
   23.5770    3.1970   -5.6420 O   0  0  0  0  0  0  0  0  0  0  0  0
   23.5690    5.4540   -6.6430 C   0  0  2  0  0  0  0  0  0  0  0  0
   24.4470    6.2980   -7.3800 O   0  0  0  0  0  0  0  0  0  0  0  0
   23.3000    6.1360   -5.3030 C   0  0  0  0  0  0  0  0  0  0  0  0
   24.5140    6.4120   -4.6050 O   0  0  0  0  0  0  0  0  0  0  0  0
  1 10  1  6  0  0  0
  1  9  1  0  0  0  0
  1  2  1  0  0  0  0
  2  3  1  1  0  0  0
  2  4  1  0  0  0  0
  4  6  1  0  0  0  0
  4  5  1  1  0  0  0
  6  8  1  0  0  0  0
  6  7  1  1  0  0  0
  8  9  1  0  0  0  0
  8 20  1  6  0  0  0
 10 15  1  0  0  0  0
 11 18  1  0  0  0  0
 11 12  2  0  0  0  0
 11 13  1  0  0  0  0
 12 16  1  0  0  0  0
 13 14  2  0  0  0  0
 14 15  1  0  0  0  0
 15 16  2  0  0  0  0
 17 18  2  0  0  0  0
 18 19  2  0  0  0  0
 20 21  1  0  0  0  0
 22 21  1  1  0  0  0
 22 23  1  0  0  0  0
 22 30  1  0  0  0  0
 23 24  1  6  0  0  0
 23 25  1  0  0  0  0
 25 26  1  1  0  0  0
 25 27  1  0  0  0  0
 27 29  1  0  0  0  0
 27 28  1  1  0  0  0
 29 30  1  0  0  0  0
 29 31  1  1  0  0  0
 31 32  1  0  0  0  0
M  END
>  <COMPND>
    UNNAMED

>  <AUTHOR>
    GENERATED BY OPEN BABEL 2.4.90

>  <MASTER>
        0    0    0    0    0    0    0    0   32    0   32    0

