__4m82_A_rec_4m82_ngb_lig_min.pdb
 OpenBabel10181922413D

 32 34  0  0  1  0  0  0  0  0999 V2000
   26.9270   10.5440   -9.1410 C   0  0  1  0  0  0  0  0  0  0  0  0
   26.1030   11.0870   -7.9820 C   0  0  2  0  0  0  0  0  0  0  0  0
   26.4800   12.4490   -7.7390 O   0  0  0  0  0  0  0  0  0  0  0  0
   26.3730   10.2570   -6.7410 C   0  0  1  0  0  0  0  0  0  0  0  0
   25.5750   10.7210   -5.6450 O   0  0  0  0  0  0  0  0  0  0  0  0
   26.0720    8.8070   -7.0560 C   0  0  2  0  0  0  0  0  0  0  0  0
   26.3260    7.9720   -5.9230 O   0  0  0  0  0  0  0  0  0  0  0  0
   26.9440    8.3850   -8.2340 C   0  0  2  0  0  0  0  0  0  0  0  0
   26.5880    9.1790   -9.3690 O   0  0  0  0  0  0  0  0  0  0  0  0
   26.5760   11.2830  -10.2880 O   0  0  0  0  0  0  0  0  0  0  0  0
   29.3240   11.9270  -13.2830 C   0  0  0  0  0  0  0  0  0  0  0  0
   27.9790   12.1560  -13.5100 C   0  0  0  0  0  0  0  0  0  0  0  0
   29.7690   11.4840  -12.0450 C   0  0  0  0  0  0  0  0  0  0  0  0
   28.8400   11.2640  -11.0250 C   0  0  0  0  0  0  0  0  0  0  0  0
   27.4910   11.4910  -11.2710 C   0  0  0  0  0  0  0  0  0  0  0  0
   27.0490   11.9350  -12.5090 C   0  0  0  0  0  0  0  0  0  0  0  0
   31.3850   12.4430  -14.0790 O   0  0  0  0  0  0  0  0  0  0  0  0
   30.2240   12.1550  -14.3240 N   0  0  0  0  0  0  0  0  0  0  0  0
   29.8430   12.0600  -15.4810 O   0  0  0  0  0  0  0  0  0  0  0  0
   26.7760    6.8990   -8.5260 C   0  0  0  0  0  0  0  0  0  0  0  0
   25.6660    6.6910   -9.3940 O   0  0  0  0  0  0  0  0  0  0  0  0
   24.7010    5.8090   -8.8060 C   0  0  1  0  0  0  0  0  0  0  0  0
   25.2470    4.3860   -8.6820 C   0  0  2  0  0  0  0  0  0  0  0  0
   25.5060    3.8140   -9.9770 O   0  0  0  0  0  0  0  0  0  0  0  0
   24.2740    3.5220   -7.9010 C   0  0  1  0  0  0  0  0  0  0  0  0
   24.8450    2.2180   -7.7540 O   0  0  0  0  0  0  0  0  0  0  0  0
   24.1120    4.1680   -6.5350 C   0  0  2  0  0  0  0  0  0  0  0  0
   23.3490    3.3410   -5.6400 O   0  0  0  0  0  0  0  0  0  0  0  0
   23.4460    5.5310   -6.7760 C   0  0  2  0  0  0  0  0  0  0  0  0
   24.3830    6.3120   -7.5110 O   0  0  0  0  0  0  0  0  0  0  0  0
   23.1150    6.2990   -5.4970 C   0  0  0  0  0  0  0  0  0  0  0  0
   24.1800    6.2200   -4.5510 O   0  0  0  0  0  0  0  0  0  0  0  0
  1 10  1  6  0  0  0
  1  9  1  0  0  0  0
  1  2  1  0  0  0  0
  2  3  1  1  0  0  0
  2  4  1  0  0  0  0
  4  6  1  0  0  0  0
  4  5  1  1  0  0  0
  6  8  1  0  0  0  0
  6  7  1  1  0  0  0
  8  9  1  0  0  0  0
  8 20  1  6  0  0  0
 10 15  1  0  0  0  0
 11 18  1  0  0  0  0
 11 12  2  0  0  0  0
 11 13  1  0  0  0  0
 12 16  1  0  0  0  0
 13 14  2  0  0  0  0
 14 15  1  0  0  0  0
 15 16  2  0  0  0  0
 17 18  2  0  0  0  0
 18 19  2  0  0  0  0
 20 21  1  0  0  0  0
 22 21  1  1  0  0  0
 22 23  1  0  0  0  0
 22 30  1  0  0  0  0
 23 24  1  6  0  0  0
 23 25  1  0  0  0  0
 25 26  1  1  0  0  0
 25 27  1  0  0  0  0
 27 29  1  0  0  0  0
 27 28  1  1  0  0  0
 29 30  1  0  0  0  0
 29 31  1  1  0  0  0
 31 32  1  0  0  0  0
M  END
>  <COMPND>
    UNNAMED

>  <AUTHOR>
    GENERATED BY OPEN BABEL 2.4.90

>  <MASTER>
        0    0    0    0    0    0    0    0   32    0   32    0

