__1cel_A_rec_1cel_ibz_lig_min.pdb
 OpenBabel10191906473D

  9  9  0  0  0  0  0  0  0  0999 V2000
   21.3530   52.3110   92.9380 C   0  0  0  0  0  0  0  0  0  0  0  0
   20.5210   52.1420   91.8360 C   0  0  0  0  0  0  0  0  0  0  0  0
   19.9430   50.9280   91.5940 C   0  0  0  0  0  0  0  0  0  0  0  0
   20.2020   49.8740   92.4630 C   0  0  0  0  0  0  0  0  0  0  0  0
   21.0350   50.0540   93.5590 C   0  0  0  0  0  0  0  0  0  0  0  0
   21.6030   51.2610   93.7920 C   0  0  0  0  0  0  0  0  0  0  0  0
   20.1630   53.7450   90.4480 I   0  0  0  0  0  0  0  0  0  0  0  0
   23.9230   53.2050   93.4300 S   0  0  0  0  0  0  0  0  0  0  0  0
   22.1430   53.5740   93.2270 C   0  0  0  0  0  0  0  0  0  0  0  0
  1  2  2  0  0  0  0
  1  9  1  0  0  0  0
  1  6  1  0  0  0  0
  2  7  1  0  0  0  0
  2  3  1  0  0  0  0
  3  4  2  0  0  0  0
  4  5  1  0  0  0  0
  5  6  2  0  0  0  0
  8  9  1  0  0  0  0
M  END
>  <COMPND>
    UNNAMED

>  <AUTHOR>
    GENERATED BY OPEN BABEL 2.4.90

>  <MASTER>
        0    0    0    0    0    0    0    0    9    0    9    0

