__1cel_A_rec_2v3r_xx7_lig_min.pdb
 OpenBabel10191906363D

 25 27  0  0  1  0  0  0  0  0999 V2000
   25.9670   56.0580   90.0010 O   0  0  0  0  0  0  0  0  0  0  0  0
   24.6560   55.6420   90.0530 C   0  0  0  0  0  0  0  0  0  0  0  0
   23.8790   55.8510   88.9100 C   0  0  0  0  0  0  0  0  0  0  0  0
   24.4430   56.4460   87.7760 C   0  0  0  0  0  0  0  0  0  0  0  0
   23.6880   56.7030   86.6370 C   0  0  0  0  0  0  0  0  0  0  0  0
   22.3460   56.3380   86.6150 C   0  0  0  0  0  0  0  0  0  0  0  0
   21.7770   55.7270   87.7280 C   0  0  0  0  0  0  0  0  0  0  0  0
   22.5270   55.4720   88.8870 C   0  0  0  0  0  0  0  0  0  0  0  0
   21.9860   54.8670   90.0260 C   0  0  0  0  0  0  0  0  0  0  0  0
   20.6590   54.4260   90.0460 C   0  0  0  0  0  0  0  0  0  0  0  0
   20.1390   53.8260   91.1820 C   0  0  0  0  0  0  0  0  0  0  0  0
   20.9270   53.6290   92.3050 C   0  0  0  0  0  0  0  0  0  0  0  0
   22.2650   54.0410   92.2940 C   0  0  0  0  0  0  0  0  0  0  0  0
   22.7820   54.6540   91.1650 C   0  0  0  0  0  0  0  0  0  0  0  0
   24.1250   55.0740   91.1860 C   0  0  0  0  0  0  0  0  0  0  0  0
   26.8200   55.9490   91.1160 C   0  0  0  0  0  0  0  0  0  0  0  0
   29.1260   55.8460   90.4380 O   0  0  0  0  0  0  0  0  0  0  0  0
   28.0540   56.7460   90.7520 C   0  0  1  0  0  0  0  0  0  0  0  0
   27.7480   57.6370   89.5370 C   0  0  0  0  0  0  0  0  0  0  0  0
   28.7240   58.7640   89.4950 N   0  0  0  0  0  0  0  0  0  0  0  0
   28.5510   59.6590   88.3180 C   0  0  0  0  0  0  0  0  0  0  0  0
   27.8550   61.6710   89.5180 O   0  0  0  0  0  0  0  0  0  0  0  0
   28.9030   61.1000   88.6940 C   0  0  0  0  0  0  0  0  0  0  0  0
   29.3890   59.1540   87.1530 C   0  0  0  0  0  0  0  0  0  0  0  0
   28.5730   58.4710   86.1950 O   0  0  0  0  0  0  0  0  0  0  0  0
  1  2  1  0  0  0  0
  1 16  1  0  0  0  0
  2  3  2  0  0  0  0
  2 15  1  0  0  0  0
  3  4  1  0  0  0  0
  3  8  1  0  0  0  0
  4  5  2  0  0  0  0
  5  6  1  0  0  0  0
  6  7  2  0  0  0  0
  7  8  1  0  0  0  0
  8  9  2  0  0  0  0
  9 10  1  0  0  0  0
  9 14  1  0  0  0  0
 10 11  2  0  0  0  0
 11 12  1  0  0  0  0
 12 13  2  0  0  0  0
 13 14  1  0  0  0  0
 14 15  2  0  0  0  0
 16 18  1  0  0  0  0
 18 17  1  6  0  0  0
 18 19  1  0  0  0  0
 19 20  1  0  0  0  0
 20 21  1  0  0  0  0
 21 24  1  0  0  0  0
 21 23  1  0  0  0  0
 22 23  1  0  0  0  0
 24 25  1  0  0  0  0
M  END
>  <COMPND>
    UNNAMED

>  <AUTHOR>
    GENERATED BY OPEN BABEL 2.4.90

>  <MASTER>
        0    0    0    0    0    0    0    0   25    0   25    0

