__1dy4_A_rec_1dy4_snp_lig_min.pdb
 OpenBabel10191906293D

 19 20  0  0  1  0  0  0  0  0999 V2000
   25.8870   55.8160   90.2200 O   0  0  0  0  0  0  0  0  0  0  0  0
   24.6260   55.2910   90.4600 C   0  0  0  0  0  0  0  0  0  0  0  0
   24.2690   54.5730   91.6400 C   0  0  0  0  0  0  0  0  0  0  0  0
   22.9590   54.0460   91.8480 C   0  0  0  0  0  0  0  0  0  0  0  0
   21.9600   54.2430   90.8460 C   0  0  0  0  0  0  0  0  0  0  0  0
   21.2830   55.1330   88.6900 C   0  0  0  0  0  0  0  0  0  0  0  0
   21.5740   55.8470   87.4850 C   0  0  0  0  0  0  0  0  0  0  0  0
   22.8860   56.3730   87.2780 C   0  0  0  0  0  0  0  0  0  0  0  0
   23.8860   56.1750   88.2840 C   0  0  0  0  0  0  0  0  0  0  0  0
   23.6030   55.4700   89.4820 C   0  0  0  0  0  0  0  0  0  0  0  0
   22.2790   54.9470   89.6690 C   0  0  0  0  0  0  0  0  0  0  0  0
   26.7050   56.2510   91.2960 C   0  0  0  0  0  0  0  0  0  0  0  0
   28.0150   56.7910   90.7220 C   0  0  1  0  0  0  0  0  0  0  0  0
   28.9060   55.7130   90.5150 O   0  0  0  0  0  0  0  0  0  0  0  0
   27.8090   57.5200   89.3830 C   0  0  0  0  0  0  0  0  0  0  0  0
   28.6150   58.7270   89.3660 N   0  0  0  0  0  0  0  0  0  0  0  0
   28.4000   59.5820   88.2150 C   0  0  0  0  0  0  0  0  0  0  0  0
   29.2390   59.0360   87.0430 C   0  0  0  0  0  0  0  0  0  0  0  0
   28.8040   61.0400   88.5060 C   0  0  0  0  0  0  0  0  0  0  0  0
  1  2  1  0  0  0  0
  1 12  1  0  0  0  0
  2 10  2  0  0  0  0
  2  3  1  0  0  0  0
  3  4  2  0  0  0  0
  4  5  1  0  0  0  0
  5 11  2  0  0  0  0
  6  7  2  0  0  0  0
  6 11  1  0  0  0  0
  7  8  1  0  0  0  0
  8  9  2  0  0  0  0
  9 10  1  0  0  0  0
 10 11  1  0  0  0  0
 12 13  1  0  0  0  0
 13 15  1  0  0  0  0
 13 14  1  6  0  0  0
 15 16  1  0  0  0  0
 16 17  1  0  0  0  0
 17 18  1  0  0  0  0
 17 19  1  0  0  0  0
M  END
>  <COMPND>
    UNNAMED

>  <AUTHOR>
    GENERATED BY OPEN BABEL 2.4.90

>  <MASTER>
        0    0    0    0    0    0    0    0   19    0   19    0

