__1dy4_A_rec_4d5o_lat_lig_min.pdb
 OpenBabel10191906303D

 23 24  0  0  1  0  0  0  0  0999 V2000
   23.5690   52.4460   94.4290 O   0  0  0  0  0  0  0  0  0  0  0  0
   23.4700   53.5820   93.5680 C   0  0  1  0  0  0  0  0  0  0  0  0
   24.8830   53.9550   93.1030 C   0  0  1  0  0  0  0  0  0  0  0  0
   24.8270   54.9520   91.9420 C   0  0  2  0  0  0  0  0  0  0  0  0
   23.8400   54.5240   90.8410 C   0  0  2  0  0  0  0  0  0  0  0  0
   22.4690   54.1810   91.4130 C   0  0  2  0  0  0  0  0  0  0  0  0
   25.6640   54.5000   94.1850 O   0  0  0  0  0  0  0  0  0  0  0  0
   26.1510   55.1100   91.4190 O   0  0  0  0  0  0  0  0  0  0  0  0
   24.3210   53.3670   90.1440 O   0  0  0  0  0  0  0  0  0  0  0  0
   22.6000   53.2310   92.4810 O   0  0  0  0  0  0  0  0  0  0  0  0
   21.5870   53.5590   90.3350 C   0  0  0  0  0  0  0  0  0  0  0  0
   20.2170   53.7490   90.6920 O   0  0  0  0  0  0  0  0  0  0  0  0
   21.0120   50.7580   97.2730 C   0  0  2  0  0  0  0  0  0  0  0  0
   20.5510   50.5860   95.8270 C   0  0  1  0  0  0  0  0  0  0  0  0
   21.6540   50.9430   94.8250 C   0  0  2  0  0  0  0  0  0  0  0  0
   22.3810   52.2470   95.2050 C   0  0  1  0  0  0  0  0  0  0  0  0
   22.7530   52.2570   96.6910 C   0  0  2  0  0  0  0  0  0  0  0  0
   19.8920   50.6160   98.1450 O   0  0  0  0  0  0  0  0  0  0  0  0
   20.1160   49.2350   95.6100 O   0  0  0  0  0  0  0  0  0  0  0  0
   21.0330   51.0620   93.5380 O   0  0  0  0  0  0  0  0  0  0  0  0
   21.5650   52.0670   97.4590 O   0  0  0  0  0  0  0  0  0  0  0  0
   23.4590   53.5430   97.1250 C   0  0  0  0  0  0  0  0  0  0  0  0
   22.6290   54.6970   96.9370 O   0  0  0  0  0  0  0  0  0  0  0  0
  2  1  1  1  0  0  0
  2 10  1  0  0  0  0
  2  3  1  0  0  0  0
  3  4  1  0  0  0  0
  3  7  1  1  0  0  0
  4  5  1  0  0  0  0
  4  8  1  6  0  0  0
  5  9  1  1  0  0  0
  5  6  1  0  0  0  0
  6 11  1  6  0  0  0
  6 10  1  0  0  0  0
 11 12  1  0  0  0  0
 13 14  1  0  0  0  0
 13 21  1  0  0  0  0
 13 18  1  1  0  0  0
 14 15  1  0  0  0  0
 14 19  1  1  0  0  0
 15 20  1  6  0  0  0
 15 16  1  0  0  0  0
 16  1  1  6  0  0  0
 16 17  1  0  0  0  0
 17 22  1  1  0  0  0
 17 21  1  0  0  0  0
 22 23  1  0  0  0  0
M  END
>  <COMPND>
    UNNAMED

>  <AUTHOR>
    GENERATED BY OPEN BABEL 2.4.90

>  <MASTER>
        0    0    0    0    0    0    0    0   23    0   23    0

