__1dy4_A_rec_4d5o_lat_lig_docked.pdb
 OpenBabel10191906463D

 23 24  0  0  1  0  0  0  0  0999 V2000
   23.5410   52.4660   94.4550 O   0  0  0  0  0  0  0  0  0  0  0  0
   23.4190   53.5860   93.5760 C   0  0  1  0  0  0  0  0  0  0  0  0
   24.8240   53.9870   93.1130 C   0  0  1  0  0  0  0  0  0  0  0  0
   24.7490   54.9650   91.9370 C   0  0  2  0  0  0  0  0  0  0  0  0
   23.7800   54.4950   90.8370 C   0  0  2  0  0  0  0  0  0  0  0  0
   22.4150   54.1260   91.4070 C   0  0  2  0  0  0  0  0  0  0  0  0
   25.5850   54.5680   94.1910 O   0  0  0  0  0  0  0  0  0  0  0  0
   26.0720   55.1480   91.4190 O   0  0  0  0  0  0  0  0  0  0  0  0
   24.2940   53.3400   90.1610 O   0  0  0  0  0  0  0  0  0  0  0  0
   22.5640   53.1960   92.4900 O   0  0  0  0  0  0  0  0  0  0  0  0
   21.5550   53.4660   90.3340 C   0  0  0  0  0  0  0  0  0  0  0  0
   20.9160   52.3190   90.8950 O   0  0  0  0  0  0  0  0  0  0  0  0
   21.0100   50.7530   97.3090 C   0  0  2  0  0  0  0  0  0  0  0  0
   20.5570   50.5580   95.8630 C   0  0  1  0  0  0  0  0  0  0  0  0
   21.6560   50.9270   94.8600 C   0  0  2  0  0  0  0  0  0  0  0  0
   22.3550   52.2500   95.2290 C   0  0  1  0  0  0  0  0  0  0  0  0
   22.7230   52.2820   96.7160 C   0  0  2  0  0  0  0  0  0  0  0  0
   19.8920   50.5970   98.1790 O   0  0  0  0  0  0  0  0  0  0  0  0
   20.1510   49.1960   95.6570 O   0  0  0  0  0  0  0  0  0  0  0  0
   21.0370   51.0210   93.5700 O   0  0  0  0  0  0  0  0  0  0  0  0
   21.5370   52.0750   97.4830 O   0  0  0  0  0  0  0  0  0  0  0  0
   23.4010   53.5860   97.1400 C   0  0  0  0  0  0  0  0  0  0  0  0
   24.8120   53.5580   96.8930 O   0  0  0  0  0  0  0  0  0  0  0  0
  2  1  1  1  0  0  0
  2 10  1  0  0  0  0
  2  3  1  0  0  0  0
  3  4  1  0  0  0  0
  3  7  1  1  0  0  0
  4  5  1  0  0  0  0
  4  8  1  6  0  0  0
  5  9  1  1  0  0  0
  5  6  1  0  0  0  0
  6 11  1  6  0  0  0
  6 10  1  0  0  0  0
 11 12  1  0  0  0  0
 13 14  1  0  0  0  0
 13 21  1  0  0  0  0
 13 18  1  1  0  0  0
 14 15  1  0  0  0  0
 14 19  1  1  0  0  0
 15 20  1  6  0  0  0
 15 16  1  0  0  0  0
 16  1  1  6  0  0  0
 16 17  1  0  0  0  0
 17 22  1  1  0  0  0
 17 21  1  0  0  0  0
 22 23  1  0  0  0  0
M  END
>  <MODEL>
       5

>  <COMPND>
    UNNAMED

>  <AUTHOR>
    GENERATED BY OPEN BABEL 2.4.90

>  <MASTER>
        0    0    0    0    0    0    0    0   23    0   23    0

