__1q2e_A_rec_4p1h_ben_lig_docked.pdb
 OpenBabel10191906433D

  9  9  0  0  0  0  0  0  0  0999 V2000
   22.3520   54.5970   91.5240 C   0  0  0  0  0  0  0  0  0  0  0  0
   22.6710   55.3420   90.3990 C   0  0  0  0  0  0  0  0  0  0  0  0
   23.8730   56.0410   90.3490 C   0  0  0  0  0  0  0  0  0  0  0  0
   24.6960   56.0060   91.4840 C   0  0  0  0  0  0  0  0  0  0  0  0
   24.3880   55.2850   92.6070 C   0  0  0  0  0  0  0  0  0  0  0  0
   23.1960   54.5670   92.6320 C   0  0  0  0  0  0  0  0  0  0  0  0
   21.0700   53.8320   91.5680 C   0  0  0  0  0  0  0  0  0  0  0  0
   20.1590   53.9960   90.6190 N   0  0  0  0  0  0  0  0  0  0  0  0
   20.8160   52.9840   92.5530 N   0  0  0  0  0  0  0  0  0  0  0  0
  1  6  2  0  0  0  0
  1  7  1  0  0  0  0
  1  2  1  0  0  0  0
  2  3  2  0  0  0  0
  3  4  1  0  0  0  0
  4  5  2  0  0  0  0
  5  6  1  0  0  0  0
  7  8  2  0  0  0  0
  7  9  1  0  0  0  0
M  END
>  <MODEL>
      18

>  <COMPND>
    UNNAMED

>  <AUTHOR>
    GENERATED BY OPEN BABEL 2.4.90

>  <MASTER>
        0    0    0    0    0    0    0    0    9    0    9    0

