__1q2e_A_rec_1dy4_snp_lig_docked.pdb
 OpenBabel10191906443D

 19 20  0  0  1  0  0  0  0  0999 V2000
   25.5690   56.6480   90.9180 O   0  0  0  0  0  0  0  0  0  0  0  0
   24.4820   55.8460   91.2360 C   0  0  0  0  0  0  0  0  0  0  0  0
   24.3740   55.0840   92.4360 C   0  0  0  0  0  0  0  0  0  0  0  0
   23.2380   54.2690   92.7250 C   0  0  0  0  0  0  0  0  0  0  0  0
   22.1640   54.2110   91.7840 C   0  0  0  0  0  0  0  0  0  0  0  0
   21.1720   54.8830   89.6720 C   0  0  0  0  0  0  0  0  0  0  0  0
   21.2160   55.6250   88.4510 C   0  0  0  0  0  0  0  0  0  0  0  0
   22.3540   56.4400   88.1630 C   0  0  0  0  0  0  0  0  0  0  0  0
   23.4300   56.4980   89.1070 C   0  0  0  0  0  0  0  0  0  0  0  0
   23.3910   55.7650   90.3210 C   0  0  0  0  0  0  0  0  0  0  0  0
   22.2400   54.9510   90.5900 C   0  0  0  0  0  0  0  0  0  0  0  0
   26.8230   56.4490   91.5540 C   0  0  0  0  0  0  0  0  0  0  0  0
   27.9210   57.0040   90.6450 C   0  0  1  0  0  0  0  0  0  0  0  0
   28.9850   56.0750   90.5900 O   0  0  0  0  0  0  0  0  0  0  0  0
   27.4200   57.2600   89.2140 C   0  0  0  0  0  0  0  0  0  0  0  0
   27.3740   58.6900   88.9710 N   0  0  0  0  0  0  0  0  0  0  0  0
   28.5330   59.2240   88.2830 C   0  0  0  0  0  0  0  0  0  0  0  0
   29.1860   60.2880   89.1880 C   0  0  0  0  0  0  0  0  0  0  0  0
   28.1500   59.8590   86.9320 C   0  0  0  0  0  0  0  0  0  0  0  0
  1  2  1  0  0  0  0
  1 12  1  0  0  0  0
  2 10  2  0  0  0  0
  2  3  1  0  0  0  0
  3  4  2  0  0  0  0
  4  5  1  0  0  0  0
  5 11  2  0  0  0  0
  6  7  2  0  0  0  0
  6 11  1  0  0  0  0
  7  8  1  0  0  0  0
  8  9  2  0  0  0  0
  9 10  1  0  0  0  0
 10 11  1  0  0  0  0
 12 13  1  0  0  0  0
 13 15  1  0  0  0  0
 13 14  1  6  0  0  0
 15 16  1  0  0  0  0
 16 17  1  0  0  0  0
 17 18  1  0  0  0  0
 17 19  1  0  0  0  0
M  END
>  <MODEL>
       4

>  <COMPND>
    UNNAMED

>  <AUTHOR>
    GENERATED BY OPEN BABEL 2.4.90

>  <MASTER>
        0    0    0    0    0    0    0    0   19    0   19    0

