__4c4c_A_rec_1dy4_snp_lig_min.pdb
 OpenBabel10191906293D

 19 20  0  0  1  0  0  0  0  0999 V2000
   26.0820   55.4840   90.2400 O   0  0  0  0  0  0  0  0  0  0  0  0
   24.7660   55.1490   90.5240 C   0  0  0  0  0  0  0  0  0  0  0  0
   24.3500   54.4830   91.7150 C   0  0  0  0  0  0  0  0  0  0  0  0
   22.9840   54.1530   91.9690 C   0  0  0  0  0  0  0  0  0  0  0  0
   21.9910   54.5020   91.0040 C   0  0  0  0  0  0  0  0  0  0  0  0
   21.3750   55.4970   88.8760 C   0  0  0  0  0  0  0  0  0  0  0  0
   21.7250   56.1680   87.6630 C   0  0  0  0  0  0  0  0  0  0  0  0
   23.0930   56.4970   87.4090 C   0  0  0  0  0  0  0  0  0  0  0  0
   24.0880   56.1470   88.3780 C   0  0  0  0  0  0  0  0  0  0  0  0
   23.7470   55.4830   89.5840 C   0  0  0  0  0  0  0  0  0  0  0  0
   22.3680   55.1600   89.8180 C   0  0  0  0  0  0  0  0  0  0  0  0
   26.9890   55.8010   91.2850 C   0  0  0  0  0  0  0  0  0  0  0  0
   28.2500   56.4040   90.6660 C   0  0  1  0  0  0  0  0  0  0  0  0
   29.0730   55.3580   90.1880 O   0  0  0  0  0  0  0  0  0  0  0  0
   27.9320   57.3500   89.4960 C   0  0  0  0  0  0  0  0  0  0  0  0
   28.6130   58.6150   89.7040 N   0  0  0  0  0  0  0  0  0  0  0  0
   28.4580   59.5700   88.6250 C   0  0  0  0  0  0  0  0  0  0  0  0
   29.3370   59.1140   87.4430 C   0  0  0  0  0  0  0  0  0  0  0  0
   28.8710   60.9900   89.0580 C   0  0  0  0  0  0  0  0  0  0  0  0
  1  2  1  0  0  0  0
  1 12  1  0  0  0  0
  2 10  2  0  0  0  0
  2  3  1  0  0  0  0
  3  4  2  0  0  0  0
  4  5  1  0  0  0  0
  5 11  2  0  0  0  0
  6  7  2  0  0  0  0
  6 11  1  0  0  0  0
  7  8  1  0  0  0  0
  8  9  2  0  0  0  0
  9 10  1  0  0  0  0
 10 11  1  0  0  0  0
 12 13  1  0  0  0  0
 13 15  1  0  0  0  0
 13 14  1  6  0  0  0
 15 16  1  0  0  0  0
 16 17  1  0  0  0  0
 17 18  1  0  0  0  0
 17 19  1  0  0  0  0
M  END
>  <COMPND>
    UNNAMED

>  <AUTHOR>
    GENERATED BY OPEN BABEL 2.4.90

>  <MASTER>
        0    0    0    0    0    0    0    0   19    0   19    0

