__4cel_A_rec_4p1h_ben_lig_min.pdb
 OpenBabel10191906273D

  9  9  0  0  0  0  0  0  0  0999 V2000
   22.6600   54.8000   91.1520 C   0  0  0  0  0  0  0  0  0  0  0  0
   23.8520   55.0770   91.8020 C   0  0  0  0  0  0  0  0  0  0  0  0
   24.7770   55.9360   91.2160 C   0  0  0  0  0  0  0  0  0  0  0  0
   24.4800   56.4460   89.9440 C   0  0  0  0  0  0  0  0  0  0  0  0
   23.3110   56.1690   89.2840 C   0  0  0  0  0  0  0  0  0  0  0  0
   22.3820   55.3320   89.8950 C   0  0  0  0  0  0  0  0  0  0  0  0
   21.6600   53.8930   91.7920 C   0  0  0  0  0  0  0  0  0  0  0  0
   20.4750   53.6980   91.2300 N   0  0  0  0  0  0  0  0  0  0  0  0
   21.9340   53.2720   92.9300 N   0  0  0  0  0  0  0  0  0  0  0  0
  1  6  2  0  0  0  0
  1  7  1  0  0  0  0
  1  2  1  0  0  0  0
  2  3  2  0  0  0  0
  3  4  1  0  0  0  0
  4  5  2  0  0  0  0
  5  6  1  0  0  0  0
  7  8  2  0  0  0  0
  7  9  1  0  0  0  0
M  END
>  <COMPND>
    UNNAMED

>  <AUTHOR>
    GENERATED BY OPEN BABEL 2.4.90

>  <MASTER>
        0    0    0    0    0    0    0    0    9    0    9    0

