__4d5v_A_rec_1dy4_snp_lig_min.pdb
 OpenBabel10191906283D

 19 20  0  0  1  0  0  0  0  0999 V2000
   25.9620   55.9910   90.0320 O   0  0  0  0  0  0  0  0  0  0  0  0
   24.6940   55.5110   90.3240 C   0  0  0  0  0  0  0  0  0  0  0  0
   24.3410   54.8820   91.5550 C   0  0  0  0  0  0  0  0  0  0  0  0
   23.0230   54.3980   91.8160 C   0  0  0  0  0  0  0  0  0  0  0  0
   22.0130   54.5500   90.8160 C   0  0  0  0  0  0  0  0  0  0  0  0
   21.3210   55.3080   88.6160 C   0  0  0  0  0  0  0  0  0  0  0  0
   21.6080   55.9330   87.3620 C   0  0  0  0  0  0  0  0  0  0  0  0
   22.9280   56.4150   87.1010 C   0  0  0  0  0  0  0  0  0  0  0  0
   23.9390   56.2630   88.1040 C   0  0  0  0  0  0  0  0  0  0  0  0
   23.6600   55.6460   89.3510 C   0  0  0  0  0  0  0  0  0  0  0  0
   22.3290   55.1660   89.5910 C   0  0  0  0  0  0  0  0  0  0  0  0
   26.9740   56.0100   91.0270 C   0  0  0  0  0  0  0  0  0  0  0  0
   28.2880   56.4420   90.3740 C   0  0  1  0  0  0  0  0  0  0  0  0
   29.2240   55.3870   90.4830 O   0  0  0  0  0  0  0  0  0  0  0  0
   28.1140   56.7900   88.8860 C   0  0  0  0  0  0  0  0  0  0  0  0
   28.4990   58.1730   88.6700 N   0  0  0  0  0  0  0  0  0  0  0  0
   27.7590   58.8500   87.6230 C   0  0  0  0  0  0  0  0  0  0  0  0
   27.0500   57.7840   86.7640 C   0  0  0  0  0  0  0  0  0  0  0  0
   28.6840   59.7010   86.7320 C   0  0  0  0  0  0  0  0  0  0  0  0
  1  2  1  0  0  0  0
  1 12  1  0  0  0  0
  2 10  2  0  0  0  0
  2  3  1  0  0  0  0
  3  4  2  0  0  0  0
  4  5  1  0  0  0  0
  5 11  2  0  0  0  0
  6  7  2  0  0  0  0
  6 11  1  0  0  0  0
  7  8  1  0  0  0  0
  8  9  2  0  0  0  0
  9 10  1  0  0  0  0
 10 11  1  0  0  0  0
 12 13  1  0  0  0  0
 13 15  1  0  0  0  0
 13 14  1  6  0  0  0
 15 16  1  0  0  0  0
 16 17  1  0  0  0  0
 17 18  1  0  0  0  0
 17 19  1  0  0  0  0
M  END
>  <COMPND>
    UNNAMED

>  <AUTHOR>
    GENERATED BY OPEN BABEL 2.4.90

>  <MASTER>
        0    0    0    0    0    0    0    0   19    0   19    0

