__2afu_A_rec_2afu_bgt_lig_min.pdb
 OpenBabel10201912103D

 14 13  0  0  1  0  0  0  0  0999 V2000
   -6.2720   75.9360    3.4750 N   0  0  0  0  0  0  0  0  0  0  0  0
   -5.3290   75.5690    4.5650 C   0  0  2  0  0  0  0  0  0  0  0  0
   -5.0440   76.8120    5.4140 C   0  0  0  0  0  0  0  0  0  0  0  0
   -4.6500   77.8240    4.7780 O   0  0  0  0  0  0  0  0  0  0  0  0
   -5.2420   76.6640    6.6900 O   0  0  0  0  0  0  0  0  0  0  0  0
   -4.8230   77.6640    7.7030 C   0  0  0  0  0  0  0  0  0  0  0  0
   -3.3500   78.0980    7.4950 C   0  0  0  0  0  0  0  0  0  0  0  0
   -5.7560   78.8950    7.7260 C   0  0  0  0  0  0  0  0  0  0  0  0
   -4.9650   76.9370    9.0530 C   0  0  0  0  0  0  0  0  0  0  0  0
   -4.0310   74.9960    3.9600 C   0  0  0  0  0  0  0  0  0  0  0  0
   -3.0600   74.3280    4.9410 C   0  0  0  0  0  0  0  0  0  0  0  0
   -2.0400   75.2630    5.5660 C   0  0  0  0  0  0  0  0  0  0  0  0
   -1.5860   76.2160    4.9420 O   0  0  0  0  0  0  0  0  0  0  0  0
   -1.6880   75.0040    6.8170 N   0  0  0  0  0  0  0  0  0  0  0  0
  2  1  1  6  0  0  0
  2 10  1  0  0  0  0
  2  3  1  0  0  0  0
  3  4  2  0  0  0  0
  3  5  1  0  0  0  0
  5  6  1  0  0  0  0
  6  7  1  0  0  0  0
  6  8  1  0  0  0  0
  6  9  1  0  0  0  0
 10 11  1  0  0  0  0
 11 12  1  0  0  0  0
 12 13  2  0  0  0  0
 12 14  1  0  0  0  0
M  END
>  <COMPND>
    UNNAMED

>  <AUTHOR>
    GENERATED BY OPEN BABEL 2.4.90

>  <MASTER>
        0    0    0    0    0    0    0    0   14    0   14    0

