__2afw_A_rec_2afu_bgt_lig_min.pdb
 OpenBabel10201912053D

 14 13  0  0  1  0  0  0  0  0999 V2000
   -5.9510   76.3380    3.7020 N   0  0  0  0  0  0  0  0  0  0  0  0
   -4.9820   76.1530    4.8150 C   0  0  2  0  0  0  0  0  0  0  0  0
   -4.6020   77.5270    5.3760 C   0  0  0  0  0  0  0  0  0  0  0  0
   -3.7160   78.1490    4.7350 O   0  0  0  0  0  0  0  0  0  0  0  0
   -5.2440   77.8790    6.4510 O   0  0  0  0  0  0  0  0  0  0  0  0
   -4.5860   78.4870    7.6330 C   0  0  0  0  0  0  0  0  0  0  0  0
   -3.0650   78.1900    7.6500 C   0  0  0  0  0  0  0  0  0  0  0  0
   -4.8460   80.0080    7.7240 C   0  0  0  0  0  0  0  0  0  0  0  0
   -5.2610   77.8180    8.8450 C   0  0  0  0  0  0  0  0  0  0  0  0
   -3.7390   75.3960    4.3020 C   0  0  0  0  0  0  0  0  0  0  0  0
   -2.9580   74.5850    5.3430 C   0  0  0  0  0  0  0  0  0  0  0  0
   -1.7940   75.3210    5.9830 C   0  0  0  0  0  0  0  0  0  0  0  0
   -1.2190   76.2320    5.3970 O   0  0  0  0  0  0  0  0  0  0  0  0
   -1.4520   74.9390    7.2050 N   0  0  0  0  0  0  0  0  0  0  0  0
  2  1  1  6  0  0  0
  2 10  1  0  0  0  0
  2  3  1  0  0  0  0
  3  4  2  0  0  0  0
  3  5  1  0  0  0  0
  5  6  1  0  0  0  0
  6  7  1  0  0  0  0
  6  8  1  0  0  0  0
  6  9  1  0  0  0  0
 10 11  1  0  0  0  0
 11 12  1  0  0  0  0
 12 13  2  0  0  0  0
 12 14  1  0  0  0  0
M  END
>  <COMPND>
    UNNAMED

>  <AUTHOR>
    GENERATED BY OPEN BABEL 2.4.90

>  <MASTER>
        0    0    0    0    0    0    0    0   14    0   14    0

