__2zee_A_rec_2afu_bgt_lig_min.pdb
 OpenBabel10201912033D

 14 13  0  0  1  0  0  0  0  0999 V2000
   -6.0180   76.1470    3.7300 N   0  0  0  0  0  0  0  0  0  0  0  0
   -5.0090   75.9920    4.8110 C   0  0  2  0  0  0  0  0  0  0  0  0
   -4.7240   77.3670    5.4240 C   0  0  0  0  0  0  0  0  0  0  0  0
   -3.9010   78.0810    4.7950 O   0  0  0  0  0  0  0  0  0  0  0  0
   -5.3680   77.6230    6.5240 O   0  0  0  0  0  0  0  0  0  0  0  0
   -4.7270   78.2050    7.7290 C   0  0  0  0  0  0  0  0  0  0  0  0
   -3.2330   77.8060    7.8250 C   0  0  0  0  0  0  0  0  0  0  0  0
   -4.8860   79.7420    7.7870 C   0  0  0  0  0  0  0  0  0  0  0  0
   -5.5040   77.6050    8.9150 C   0  0  0  0  0  0  0  0  0  0  0  0
   -3.7240   75.3590    4.2380 C   0  0  0  0  0  0  0  0  0  0  0  0
   -2.8470   74.5830    5.2280 C   0  0  0  0  0  0  0  0  0  0  0  0
   -1.7130   75.3850    5.8400 C   0  0  0  0  0  0  0  0  0  0  0  0
   -1.2930   76.4050    5.3020 O   0  0  0  0  0  0  0  0  0  0  0  0
   -1.2220   74.9370    6.9860 N   0  0  0  0  0  0  0  0  0  0  0  0
  2  1  1  6  0  0  0
  2 10  1  0  0  0  0
  2  3  1  0  0  0  0
  3  4  2  0  0  0  0
  3  5  1  0  0  0  0
  5  6  1  0  0  0  0
  6  7  1  0  0  0  0
  6  8  1  0  0  0  0
  6  9  1  0  0  0  0
 10 11  1  0  0  0  0
 11 12  1  0  0  0  0
 12 13  2  0  0  0  0
 12 14  1  0  0  0  0
M  END
>  <COMPND>
    UNNAMED

>  <AUTHOR>
    GENERATED BY OPEN BABEL 2.4.90

>  <MASTER>
        0    0    0    0    0    0    0    0   14    0   14    0

