__2zeg_A_rec_2afx_1bn_lig_min.pdb
 OpenBabel10201912023D

 12 13  0  0  0  0  0  0  0  0999 V2000
   -3.2750   75.4720    6.3210 C   0  0  0  0  0  0  0  0  0  0  0  0
   -2.0450   76.2670    6.5680 C   0  0  0  0  0  0  0  0  0  0  0  0
   -1.2160   76.6470    5.5140 C   0  0  0  0  0  0  0  0  0  0  0  0
   -1.7450   76.7100    7.8510 C   0  0  0  0  0  0  0  0  0  0  0  0
   -0.1040   77.4740    5.7340 C   0  0  0  0  0  0  0  0  0  0  0  0
   -0.6410   77.5360    8.0810 C   0  0  0  0  0  0  0  0  0  0  0  0
    0.1790   77.9180    7.0110 C   0  0  0  0  0  0  0  0  0  0  0  0
   -4.1550   74.7500    4.0900 C   0  0  0  0  0  0  0  0  0  0  0  0
   -5.0480   75.2670    3.2130 C   0  0  0  0  0  0  0  0  0  0  0  0
   -3.9570   75.7130    5.0530 N   0  0  0  0  0  0  0  0  0  0  0  0
   -4.7080   76.7660    4.7770 C   0  0  0  0  0  0  0  0  0  0  0  0
   -5.3810   76.5170    3.6610 N   0  0  0  0  0  0  0  0  0  0  0  0
  1 10  1  0  0  0  0
  1  2  1  0  0  0  0
  2  3  2  0  0  0  0
  2  4  1  0  0  0  0
  3  5  1  0  0  0  0
  4  6  2  0  0  0  0
  5  7  2  0  0  0  0
  6  7  1  0  0  0  0
  8  9  2  0  0  0  0
  8 10  1  0  0  0  0
  9 12  1  0  0  0  0
 10 11  1  0  0  0  0
 11 12  2  0  0  0  0
M  END
>  <COMPND>
    UNNAMED

>  <AUTHOR>
    GENERATED BY OPEN BABEL 2.4.90

>  <MASTER>
        0    0    0    0    0    0    0    0   12    0   12    0

