__1d1x_A_rec_4cwy_hw1_lig_min.pdb
 OpenBabel10201904033D

 28 30  0  0  1  0  0  0  0  0999 V2000
   14.2190   15.6930   39.0190 C   0  0  2  0  0  0  0  0  0  0  0  0
   13.2750   15.6710   40.2210 C   0  0  0  0  0  0  0  0  0  0  0  0
   12.3480   16.7580   39.9490 N   0  0  0  0  0  0  0  0  0  0  0  0
   12.6600   17.5090   38.7430 C   0  0  0  0  0  0  0  0  0  0  0  0
   13.4300   16.4530   37.9550 C   0  0  2  0  0  0  0  0  0  0  0  0
   14.7220   14.2920   38.6460 C   0  0  0  0  0  0  0  0  0  0  0  0
   16.0770   14.3580   34.0410 N   0  0  0  0  0  0  0  0  0  0  0  0
   16.4710   14.4810   35.3380 C   0  0  0  0  0  0  0  0  0  0  0  0
   17.8000   14.7420   35.6770 C   0  0  0  0  0  0  0  0  0  0  0  0
   18.1610   14.8560   37.0250 C   0  0  0  0  0  0  0  0  0  0  0  0
   19.6060   15.1320   37.3780 C   0  0  0  0  0  0  0  0  0  0  0  0
   17.1780   14.7120   38.0310 C   0  0  0  0  0  0  0  0  0  0  0  0
   15.5460   14.3430   36.3250 N   0  0  0  0  0  0  0  0  0  0  0  0
   15.8520   14.4460   37.6450 C   0  0  0  0  0  0  0  0  0  0  0  0
   12.5040   15.5370   37.3390 O   0  0  0  0  0  0  0  0  0  0  0  0
   12.0100   15.9160   36.0490 C   0  0  0  0  0  0  0  0  0  0  0  0
   11.6870   14.6140   35.3280 C   0  0  0  0  0  0  0  0  0  0  0  0
   11.1140   14.8060   33.9310 C   0  0  0  0  0  0  0  0  0  0  0  0
   10.2000   13.6370   33.5420 C   0  0  0  0  0  0  0  0  0  0  0  0
    9.3050   14.1240   32.4170 C   0  0  0  0  0  0  0  0  0  0  0  0
    8.4540   13.1000   31.6630 C   0  0  0  0  0  0  0  0  0  0  0  0
    7.1230   13.0570   31.9140 N   0  0  0  0  0  0  0  0  0  0  0  0
    6.3050   12.2390   31.2410 C   0  0  0  0  0  0  0  0  0  0  0  0
    5.0000   12.3060   31.5680 N   0  0  0  0  0  0  0  0  0  0  0  0
    6.7940   11.3540   30.2560 C   0  0  0  0  0  0  0  0  0  0  0  0
    8.1740   11.3610   29.9940 C   0  0  0  0  0  0  0  0  0  0  0  0
    8.9930   12.2380   30.7000 C   0  0  0  0  0  0  0  0  0  0  0  0
    8.8100   10.4510   28.9620 C   0  0  0  0  0  0  0  0  0  0  0  0
  1  5  1  0  0  0  0
  1  6  1  6  0  0  0
  1  2  1  0  0  0  0
  2  3  1  0  0  0  0
  3  4  1  0  0  0  0
  4  5  1  0  0  0  0
  5 15  1  1  0  0  0
  6 14  1  0  0  0  0
  7  8  1  0  0  0  0
  8  9  2  0  0  0  0
  8 13  1  0  0  0  0
  9 10  1  0  0  0  0
 10 11  1  0  0  0  0
 10 12  2  0  0  0  0
 12 14  1  0  0  0  0
 13 14  2  0  0  0  0
 15 16  1  0  0  0  0
 16 17  1  0  0  0  0
 17 18  1  0  0  0  0
 18 19  1  0  0  0  0
 19 20  1  0  0  0  0
 20 21  1  0  0  0  0
 21 27  2  0  0  0  0
 21 22  1  0  0  0  0
 22 23  2  0  0  0  0
 23 25  1  0  0  0  0
 23 24  1  0  0  0  0
 25 26  2  0  0  0  0
 26 28  1  0  0  0  0
 26 27  1  0  0  0  0
M  END
>  <COMPND>
    UNNAMED

>  <AUTHOR>
    GENERATED BY OPEN BABEL 2.4.90

>  <MASTER>
        0    0    0    0    0    0    0    0   28    0   28    0

