__1d1x_A_rec_5adn_2sn_lig_min.pdb
 OpenBabel10201904533D

 23 25  0  0  0  0  0  0  0  0999 V2000
   11.5910   11.6900   34.2380 C   0  0  0  0  0  0  0  0  0  0  0  0
    8.2620   11.5460   32.4000 C   0  0  0  0  0  0  0  0  0  0  0  0
    9.2930   11.9590   33.2450 C   0  0  0  0  0  0  0  0  0  0  0  0
   10.4900   11.2500   33.3090 C   0  0  0  0  0  0  0  0  0  0  0  0
   10.6750   10.1250   32.5210 C   0  0  0  0  0  0  0  0  0  0  0  0
    9.6570    9.7260   31.6680 C   0  0  0  0  0  0  0  0  0  0  0  0
    8.4580   10.4250   31.6120 C   0  0  0  0  0  0  0  0  0  0  0  0
    7.4530    9.9770   30.7760 C   0  0  0  0  0  0  0  0  0  0  0  0
    6.2800   10.6970   30.7150 C   0  0  0  0  0  0  0  0  0  0  0  0
    6.1060   11.8120   31.5190 C   0  0  0  0  0  0  0  0  0  0  0  0
    4.9330   12.4790   31.4520 N   0  0  0  0  0  0  0  0  0  0  0  0
    7.0860   12.2190   32.3520 N   0  0  0  0  0  0  0  0  0  0  0  0
   11.1010   12.7420   35.0900 N   0  0  0  0  0  0  0  0  0  0  0  0
   12.8560   14.0810   34.2910 C   0  0  0  0  0  0  0  0  0  0  0  0
   13.4070   15.3330   34.0730 C   0  0  0  0  0  0  0  0  0  0  0  0
   12.7010   16.4820   34.4150 C   0  0  0  0  0  0  0  0  0  0  0  0
   11.4520   16.3700   35.0080 C   0  0  0  0  0  0  0  0  0  0  0  0
   10.9100   15.1090   35.2340 C   0  0  0  0  0  0  0  0  0  0  0  0
   11.6100   13.9670   34.8800 C   0  0  0  0  0  0  0  0  0  0  0  0
   14.7600   15.4490   33.4200 C   0  0  0  0  0  0  0  0  0  0  0  0
   15.7260   15.9440   35.6150 C   0  0  0  0  0  0  0  0  0  0  0  0
   15.9420   15.3070   34.3060 N   0  0  0  0  0  0  0  0  0  0  0  0
   16.3470   13.9040   34.4980 C   0  0  0  0  0  0  0  0  0  0  0  0
  1  4  1  0  0  0  0
  1 13  1  0  0  0  0
  2  7  1  0  0  0  0
  2 12  1  0  0  0  0
  2  3  2  0  0  0  0
  3  4  1  0  0  0  0
  4  5  2  0  0  0  0
  5  6  1  0  0  0  0
  6  7  2  0  0  0  0
  7  8  1  0  0  0  0
  8  9  2  0  0  0  0
  9 10  1  0  0  0  0
 10 11  1  0  0  0  0
 10 12  2  0  0  0  0
 13 19  1  0  0  0  0
 14 15  2  0  0  0  0
 14 19  1  0  0  0  0
 15 20  1  0  0  0  0
 15 16  1  0  0  0  0
 16 17  2  0  0  0  0
 17 18  1  0  0  0  0
 18 19  2  0  0  0  0
 20 22  1  0  0  0  0
 21 22  1  0  0  0  0
 22 23  1  0  0  0  0
M  END
>  <COMPND>
    UNNAMED

>  <AUTHOR>
    GENERATED BY OPEN BABEL 2.4.90

>  <MASTER>
        0    0    0    0    0    0    0    0   23    0   23    0

