__1dmk_A_rec_5fvz_w67_lig_min.pdb
 OpenBabel10201903433D

 22 23  0  0  0  0  0  0  0  0999 V2000
    9.0440   14.3800   32.8250 C   0  0  0  0  0  0  0  0  0  0  0  0
   10.1560   16.7480   35.4940 N   0  0  0  0  0  0  0  0  0  0  0  0
    9.3910   16.1020   34.6120 C   0  0  0  0  0  0  0  0  0  0  0  0
    9.9290   15.0880   33.8150 C   0  0  0  0  0  0  0  0  0  0  0  0
   11.2660   14.7280   33.9370 C   0  0  0  0  0  0  0  0  0  0  0  0
   12.0430   15.4230   34.8610 C   0  0  0  0  0  0  0  0  0  0  0  0
   11.4530   16.4240   35.6300 C   0  0  0  0  0  0  0  0  0  0  0  0
   13.5020   15.0800   35.0550 C   0  0  0  0  0  0  0  0  0  0  0  0
   13.6950   14.4870   36.4510 C   0  0  0  0  0  0  0  0  0  0  0  0
   14.7600   15.2470   37.2280 C   0  0  0  0  0  0  0  0  0  0  0  0
   16.9860   15.1080   36.3750 C   0  0  0  0  0  0  0  0  0  0  0  0
   16.0180   14.4910   37.2880 N   0  0  0  0  0  0  0  0  0  0  0  0
   16.5760   14.5520   38.6430 C   0  0  0  0  0  0  0  0  0  0  0  0
    9.3980   12.8970   32.8270 C   0  0  0  0  0  0  0  0  0  0  0  0
    7.0610   12.5140   32.1170 N   0  0  0  0  0  0  0  0  0  0  0  0
    6.1140   11.9480   31.3520 C   0  0  0  0  0  0  0  0  0  0  0  0
    4.8190   12.2810   31.5810 N   0  0  0  0  0  0  0  0  0  0  0  0
    6.4660   11.0240   30.3580 C   0  0  0  0  0  0  0  0  0  0  0  0
    7.8150   10.7170   30.1590 C   0  0  0  0  0  0  0  0  0  0  0  0
    8.7800   11.3230   30.9620 C   0  0  0  0  0  0  0  0  0  0  0  0
    8.3730   12.2180   31.9440 C   0  0  0  0  0  0  0  0  0  0  0  0
    8.2360    9.7370   29.0980 C   0  0  0  0  0  0  0  0  0  0  0  0
  1 14  1  0  0  0  0
  1  4  1  0  0  0  0
  2  3  2  0  0  0  0
  2  7  1  0  0  0  0
  3  4  1  0  0  0  0
  4  5  2  0  0  0  0
  5  6  1  0  0  0  0
  6  8  1  0  0  0  0
  6  7  2  0  0  0  0
  8  9  1  0  0  0  0
  9 10  1  0  0  0  0
 10 12  1  0  0  0  0
 11 12  1  0  0  0  0
 12 13  1  0  0  0  0
 14 21  1  0  0  0  0
 15 16  2  0  0  0  0
 15 21  1  0  0  0  0
 16 18  1  0  0  0  0
 16 17  1  0  0  0  0
 18 19  2  0  0  0  0
 19 22  1  0  0  0  0
 19 20  1  0  0  0  0
 20 21  2  0  0  0  0
M  END
>  <COMPND>
    UNNAMED

>  <AUTHOR>
    GENERATED BY OPEN BABEL 2.4.90

>  <MASTER>
        0    0    0    0    0    0    0    0   22    0   22    0

