__1dmk_A_rec_4cwx_hw0_lig_min.pdb
 OpenBabel10201905273D

 27 29  0  0  1  0  0  0  0  0999 V2000
   13.3290   16.4450   37.7800 C   0  0  1  0  0  0  0  0  0  0  0  0
   12.5540   17.4110   38.6690 C   0  0  0  0  0  0  0  0  0  0  0  0
   12.4740   16.6480   39.8990 N   0  0  0  0  0  0  0  0  0  0  0  0
   13.4970   15.6260   40.0310 C   0  0  0  0  0  0  0  0  0  0  0  0
   14.3120   15.7830   38.7530 C   0  0  1  0  0  0  0  0  0  0  0  0
   12.4200   15.4610   37.2450 O   0  0  0  0  0  0  0  0  0  0  0  0
   11.8290   15.8300   35.9920 C   0  0  0  0  0  0  0  0  0  0  0  0
   11.2650   14.5640   35.3590 C   0  0  0  0  0  0  0  0  0  0  0  0
   10.7250   14.7870   33.9480 C   0  0  0  0  0  0  0  0  0  0  0  0
    9.6680   13.7290   33.6160 C   0  0  0  0  0  0  0  0  0  0  0  0
    9.0150   14.1070   32.3000 C   0  0  0  0  0  0  0  0  0  0  0  0
    4.9090   11.7490   31.9360 N   0  0  0  0  0  0  0  0  0  0  0  0
    6.1500   11.9170   31.3920 C   0  0  0  0  0  0  0  0  0  0  0  0
    6.5800   11.2350   30.2400 C   0  0  0  0  0  0  0  0  0  0  0  0
    7.8770   11.4560   29.7340 C   0  0  0  0  0  0  0  0  0  0  0  0
    8.7040   12.3800   30.3930 C   0  0  0  0  0  0  0  0  0  0  0  0
    6.9780   12.7730   32.0070 N   0  0  0  0  0  0  0  0  0  0  0  0
    8.2260   13.0420   31.5430 C   0  0  0  0  0  0  0  0  0  0  0  0
   14.9660   14.4610   38.3370 C   0  0  0  0  0  0  0  0  0  0  0  0
   16.0910   14.7590   37.3680 C   0  0  0  0  0  0  0  0  0  0  0  0
   15.7510   15.1880   36.1270 N   0  0  0  0  0  0  0  0  0  0  0  0
   16.6730   15.4970   35.1790 C   0  0  0  0  0  0  0  0  0  0  0  0
   16.2440   15.9160   33.9510 N   0  0  0  0  0  0  0  0  0  0  0  0
   18.0320   15.3810   35.4850 C   0  0  0  0  0  0  0  0  0  0  0  0
   18.4250   14.9420   36.7550 C   0  0  0  0  0  0  0  0  0  0  0  0
   17.4450   14.6270   37.7190 C   0  0  0  0  0  0  0  0  0  0  0  0
   19.9030   14.8130   37.0690 C   0  0  0  0  0  0  0  0  0  0  0  0
  1  6  1  1  0  0  0
  1  2  1  0  0  0  0
  1  5  1  0  0  0  0
  2  3  1  0  0  0  0
  3  4  1  0  0  0  0
  4  5  1  0  0  0  0
  5 19  1  6  0  0  0
  6  7  1  0  0  0  0
  7  8  1  0  0  0  0
  8  9  1  0  0  0  0
  9 10  1  0  0  0  0
 10 11  1  0  0  0  0
 11 18  1  0  0  0  0
 12 13  1  0  0  0  0
 13 14  2  0  0  0  0
 13 17  1  0  0  0  0
 14 15  1  0  0  0  0
 15 16  2  0  0  0  0
 16 18  1  0  0  0  0
 17 18  2  0  0  0  0
 19 20  1  0  0  0  0
 20 21  2  0  0  0  0
 20 26  1  0  0  0  0
 21 22  1  0  0  0  0
 22 23  1  0  0  0  0
 22 24  2  0  0  0  0
 24 25  1  0  0  0  0
 25 27  1  0  0  0  0
 25 26  2  0  0  0  0
M  END
>  <COMPND>
    UNNAMED

>  <AUTHOR>
    GENERATED BY OPEN BABEL 2.4.90

>  <MASTER>
        0    0    0    0    0    0    0    0   27    0   27    0

