__1i83_A_rec_5adn_2sn_lig_min.pdb
 OpenBabel10201901423D

 23 25  0  0  0  0  0  0  0  0999 V2000
   11.3900   12.4300   35.2180 C   0  0  0  0  0  0  0  0  0  0  0  0
    8.4380   11.8120   32.9000 C   0  0  0  0  0  0  0  0  0  0  0  0
    9.2670   12.3810   33.8660 C   0  0  0  0  0  0  0  0  0  0  0  0
   10.5080   11.8220   34.1600 C   0  0  0  0  0  0  0  0  0  0  0  0
   10.9390   10.6920   33.4830 C   0  0  0  0  0  0  0  0  0  0  0  0
   10.1220   10.1390   32.5090 C   0  0  0  0  0  0  0  0  0  0  0  0
    8.8790   10.6880   32.2240 C   0  0  0  0  0  0  0  0  0  0  0  0
    8.0770   10.0880   31.2720 C   0  0  0  0  0  0  0  0  0  0  0  0
    6.8570   10.6610   30.9840 C   0  0  0  0  0  0  0  0  0  0  0  0
    6.4350   11.7830   31.6790 C   0  0  0  0  0  0  0  0  0  0  0  0
    5.2230   12.3030   31.3890 N   0  0  0  0  0  0  0  0  0  0  0  0
    7.2180   12.3390   32.6280 N   0  0  0  0  0  0  0  0  0  0  0  0
   10.8790   13.7280   35.5740 N   0  0  0  0  0  0  0  0  0  0  0  0
   12.6820   14.5690   34.3270 C   0  0  0  0  0  0  0  0  0  0  0  0
   13.4280   15.6430   33.8680 C   0  0  0  0  0  0  0  0  0  0  0  0
   13.0560   16.9450   34.1890 C   0  0  0  0  0  0  0  0  0  0  0  0
   11.9530   17.1650   34.9990 C   0  0  0  0  0  0  0  0  0  0  0  0
   11.2160   16.0810   35.4650 C   0  0  0  0  0  0  0  0  0  0  0  0
   11.5800   14.7860   35.1330 C   0  0  0  0  0  0  0  0  0  0  0  0
   14.6200   15.3990   32.9800 C   0  0  0  0  0  0  0  0  0  0  0  0
   16.2630   15.6390   34.7800 C   0  0  0  0  0  0  0  0  0  0  0  0
   15.8280   14.8320   33.6280 N   0  0  0  0  0  0  0  0  0  0  0  0
   15.6500   13.4300   34.0440 C   0  0  0  0  0  0  0  0  0  0  0  0
  1  4  1  0  0  0  0
  1 13  1  0  0  0  0
  2  7  1  0  0  0  0
  2 12  1  0  0  0  0
  2  3  2  0  0  0  0
  3  4  1  0  0  0  0
  4  5  2  0  0  0  0
  5  6  1  0  0  0  0
  6  7  2  0  0  0  0
  7  8  1  0  0  0  0
  8  9  2  0  0  0  0
  9 10  1  0  0  0  0
 10 11  1  0  0  0  0
 10 12  2  0  0  0  0
 13 19  1  0  0  0  0
 14 15  2  0  0  0  0
 14 19  1  0  0  0  0
 15 20  1  0  0  0  0
 15 16  1  0  0  0  0
 16 17  2  0  0  0  0
 17 18  1  0  0  0  0
 18 19  2  0  0  0  0
 20 22  1  0  0  0  0
 21 22  1  0  0  0  0
 22 23  1  0  0  0  0
M  END
>  <COMPND>
    UNNAMED

>  <AUTHOR>
    GENERATED BY OPEN BABEL 2.4.90

>  <MASTER>
        0    0    0    0    0    0    0    0   23    0   23    0

