__2hx2_A_rec_4uh9_s85_lig_min.pdb
 OpenBabel10201903563D

 23 24  0  0  0  0  0  0  0  0999 V2000
   12.3310    9.7520   33.3610 F   0  0  0  0  0  0  0  0  0  0  0  0
   12.1900   11.0610   33.7250 C   0  0  0  0  0  0  0  0  0  0  0  0
   13.2910   11.9020   34.0120 C   0  0  0  0  0  0  0  0  0  0  0  0
   13.1380   13.2590   34.3440 C   0  0  0  0  0  0  0  0  0  0  0  0
   10.9050   11.5990   33.7660 C   0  0  0  0  0  0  0  0  0  0  0  0
   10.7330   12.9420   34.1020 C   0  0  0  0  0  0  0  0  0  0  0  0
   11.8220   13.7870   34.4000 C   0  0  0  0  0  0  0  0  0  0  0  0
   14.3210   14.0020   34.6510 N   0  0  0  0  0  0  0  0  0  0  0  0
   15.6070   13.6230   34.0120 C   0  0  0  0  0  0  0  0  0  0  0  0
   14.2870   15.1100   35.6410 C   0  0  0  0  0  0  0  0  0  0  0  0
   13.9010   14.5770   37.0340 C   0  0  0  0  0  0  0  0  0  0  0  0
   15.0000   13.7540   37.6050 N   0  0  0  0  0  0  0  0  0  0  0  0
   15.6510   14.3970   38.7670 C   0  0  0  0  0  0  0  0  0  0  0  0
    9.2990   13.3540   34.1080 C   0  0  0  0  0  0  0  0  0  0  0  0
    8.8840   13.8230   32.7330 C   0  0  0  0  0  0  0  0  0  0  0  0
    8.1150   12.8010   31.8730 C   0  0  0  0  0  0  0  0  0  0  0  0
    6.8480   12.4560   32.2510 N   0  0  0  0  0  0  0  0  0  0  0  0
    6.0860   11.6360   31.5330 C   0  0  0  0  0  0  0  0  0  0  0  0
    4.8550   11.4150   32.0260 N   0  0  0  0  0  0  0  0  0  0  0  0
    6.5570   11.0950   30.2960 C   0  0  0  0  0  0  0  0  0  0  0  0
    7.8680   11.4250   29.8680 C   0  0  0  0  0  0  0  0  0  0  0  0
    8.4710   10.8760   28.5750 C   0  0  0  0  0  0  0  0  0  0  0  0
    8.6510   12.2870   30.6660 C   0  0  0  0  0  0  0  0  0  0  0  0
  1  2  1  0  0  0  0
  2  5  2  0  0  0  0
  2  3  1  0  0  0  0
  3  4  2  0  0  0  0
  4  7  1  0  0  0  0
  4  8  1  0  0  0  0
  5  6  1  0  0  0  0
  6 14  1  0  0  0  0
  6  7  2  0  0  0  0
  8  9  1  0  0  0  0
  8 10  1  0  0  0  0
 10 11  1  0  0  0  0
 11 12  1  0  0  0  0
 12 13  1  0  0  0  0
 14 15  1  0  0  0  0
 15 16  1  0  0  0  0
 16 23  2  0  0  0  0
 16 17  1  0  0  0  0
 17 18  2  0  0  0  0
 18 20  1  0  0  0  0
 18 19  1  0  0  0  0
 20 21  2  0  0  0  0
 21 22  1  0  0  0  0
 21 23  1  0  0  0  0
M  END
>  <COMPND>
    UNNAMED

>  <AUTHOR>
    GENERATED BY OPEN BABEL 2.4.90

>  <MASTER>
        0    0    0    0    0    0    0    0   23    0   23    0

