__2hx2_A_rec_4cwv_hw8_lig_min.pdb
 OpenBabel10201907113D

 26 28  0  0  1  0  0  0  0  0999 V2000
   14.1700   15.8390   38.7000 C   0  0  2  0  0  0  0  0  0  0  0  0
   13.2380   15.8540   39.8940 C   0  0  0  0  0  0  0  0  0  0  0  0
   12.3710   16.9890   39.6280 N   0  0  0  0  0  0  0  0  0  0  0  0
   13.2780   16.4050   37.6000 C   0  0  2  0  0  0  0  0  0  0  0  0
   12.4610   17.4940   38.2790 C   0  0  0  0  0  0  0  0  0  0  0  0
   14.7760   14.4540   38.4470 C   0  0  0  0  0  0  0  0  0  0  0  0
   16.3450   14.6980   33.9140 N   0  0  0  0  0  0  0  0  0  0  0  0
   16.6670   14.6920   35.2310 C   0  0  0  0  0  0  0  0  0  0  0  0
   17.9990   14.8060   35.6360 C   0  0  0  0  0  0  0  0  0  0  0  0
   18.3190   14.8070   36.9950 C   0  0  0  0  0  0  0  0  0  0  0  0
   19.7870   14.9180   37.3970 C   0  0  0  0  0  0  0  0  0  0  0  0
   17.2780   14.6970   37.9460 C   0  0  0  0  0  0  0  0  0  0  0  0
   15.9520   14.5750   37.5010 C   0  0  0  0  0  0  0  0  0  0  0  0
   15.6850   14.5870   36.1670 N   0  0  0  0  0  0  0  0  0  0  0  0
   12.4180   15.3650   37.1110 O   0  0  0  0  0  0  0  0  0  0  0  0
   11.5940   15.6910   35.9650 C   0  0  0  0  0  0  0  0  0  0  0  0
   11.2160   14.4050   35.2380 C   0  0  0  0  0  0  0  0  0  0  0  0
   10.4410   14.7370   33.9760 C   0  0  0  0  0  0  0  0  0  0  0  0
    9.6480   13.5360   33.4830 C   0  0  0  0  0  0  0  0  0  0  0  0
    8.8960   13.9810   32.2480 C   0  0  0  0  0  0  0  0  0  0  0  0
    8.0730   12.9120   31.5350 C   0  0  0  0  0  0  0  0  0  0  0  0
    6.8750   12.4990   32.0870 N   0  0  0  0  0  0  0  0  0  0  0  0
    6.0850   11.6300   31.4390 C   0  0  0  0  0  0  0  0  0  0  0  0
    6.5040   11.0880   30.2130 C   0  0  0  0  0  0  0  0  0  0  0  0
    7.7280   11.4840   29.6290 C   0  0  0  0  0  0  0  0  0  0  0  0
    8.5350   12.4050   30.2930 C   0  0  0  0  0  0  0  0  0  0  0  0
  1  4  1  0  0  0  0
  1  6  1  6  0  0  0
  1  2  1  0  0  0  0
  2  3  1  0  0  0  0
  3  5  1  0  0  0  0
  4 15  1  1  0  0  0
  4  5  1  0  0  0  0
  6 13  1  0  0  0  0
  7  8  1  0  0  0  0
  8  9  2  0  0  0  0
  8 14  1  0  0  0  0
  9 10  1  0  0  0  0
 10 11  1  0  0  0  0
 10 12  2  0  0  0  0
 12 13  1  0  0  0  0
 13 14  2  0  0  0  0
 15 16  1  0  0  0  0
 16 17  1  0  0  0  0
 17 18  1  0  0  0  0
 18 19  1  0  0  0  0
 19 20  1  0  0  0  0
 20 21  1  0  0  0  0
 21 26  2  0  0  0  0
 21 22  1  0  0  0  0
 22 23  2  0  0  0  0
 23 24  1  0  0  0  0
 24 25  2  0  0  0  0
 25 26  1  0  0  0  0
M  END
>  <COMPND>
    UNNAMED

>  <AUTHOR>
    GENERATED BY OPEN BABEL 2.4.90

>  <MASTER>
        0    0    0    0    0    0    0    0   26    0   26    0

