__3dqs_A_rec_5adn_2sn_lig_min.pdb
 OpenBabel10201903443D

 23 25  0  0  0  0  0  0  0  0999 V2000
   11.6130   11.7580   34.2410 C   0  0  0  0  0  0  0  0  0  0  0  0
    8.2460   11.5280   32.4830 C   0  0  0  0  0  0  0  0  0  0  0  0
    9.2900   11.9730   33.2950 C   0  0  0  0  0  0  0  0  0  0  0  0
   10.4980   11.2830   33.3480 C   0  0  0  0  0  0  0  0  0  0  0  0
   10.6810   10.1440   32.5800 C   0  0  0  0  0  0  0  0  0  0  0  0
    9.6500    9.7120   31.7590 C   0  0  0  0  0  0  0  0  0  0  0  0
    8.4400   10.3930   31.7160 C   0  0  0  0  0  0  0  0  0  0  0  0
    7.4230    9.9130   30.9130 C   0  0  0  0  0  0  0  0  0  0  0  0
    6.2380   10.6160   30.8630 C   0  0  0  0  0  0  0  0  0  0  0  0
    6.0670   11.7450   31.6460 C   0  0  0  0  0  0  0  0  0  0  0  0
    4.8830   12.3940   31.5920 N   0  0  0  0  0  0  0  0  0  0  0  0
    7.0600   12.1840   32.4490 N   0  0  0  0  0  0  0  0  0  0  0  0
   11.1550   12.8820   35.0150 N   0  0  0  0  0  0  0  0  0  0  0  0
   12.8380   14.1010   33.9220 C   0  0  0  0  0  0  0  0  0  0  0  0
   13.4480   15.3110   33.6320 C   0  0  0  0  0  0  0  0  0  0  0  0
   12.9290   16.5000   34.1350 C   0  0  0  0  0  0  0  0  0  0  0  0
   11.8130   16.4680   34.9570 C   0  0  0  0  0  0  0  0  0  0  0  0
   11.2110   15.2490   35.2530 C   0  0  0  0  0  0  0  0  0  0  0  0
   11.7230   14.0680   34.7400 C   0  0  0  0  0  0  0  0  0  0  0  0
   14.6550   15.3400   32.7300 C   0  0  0  0  0  0  0  0  0  0  0  0
   16.3390   16.1330   34.3220 C   0  0  0  0  0  0  0  0  0  0  0  0
   15.9690   15.0750   33.3660 N   0  0  0  0  0  0  0  0  0  0  0  0
   16.0280   13.7630   34.0330 C   0  0  0  0  0  0  0  0  0  0  0  0
  1  4  1  0  0  0  0
  1 13  1  0  0  0  0
  2  7  1  0  0  0  0
  2 12  1  0  0  0  0
  2  3  2  0  0  0  0
  3  4  1  0  0  0  0
  4  5  2  0  0  0  0
  5  6  1  0  0  0  0
  6  7  2  0  0  0  0
  7  8  1  0  0  0  0
  8  9  2  0  0  0  0
  9 10  1  0  0  0  0
 10 11  1  0  0  0  0
 10 12  2  0  0  0  0
 13 19  1  0  0  0  0
 14 15  2  0  0  0  0
 14 19  1  0  0  0  0
 15 20  1  0  0  0  0
 15 16  1  0  0  0  0
 16 17  2  0  0  0  0
 17 18  1  0  0  0  0
 18 19  2  0  0  0  0
 20 22  1  0  0  0  0
 21 22  1  0  0  0  0
 22 23  1  0  0  0  0
M  END
>  <COMPND>
    UNNAMED

>  <AUTHOR>
    GENERATED BY OPEN BABEL 2.4.90

>  <MASTER>
        0    0    0    0    0    0    0    0   23    0   23    0

