__3dqt_A_rec_5adn_2sn_lig_min.pdb
 OpenBabel10201900293D

 23 25  0  0  0  0  0  0  0  0999 V2000
   11.2900   12.7380   34.8970 C   0  0  0  0  0  0  0  0  0  0  0  0
    8.3920   11.7170   32.6520 C   0  0  0  0  0  0  0  0  0  0  0  0
    9.1750   12.4200   33.5690 C   0  0  0  0  0  0  0  0  0  0  0  0
   10.4580   11.9860   33.8920 C   0  0  0  0  0  0  0  0  0  0  0  0
   10.9790   10.8500   33.2930 C   0  0  0  0  0  0  0  0  0  0  0  0
   10.2070   10.1630   32.3680 C   0  0  0  0  0  0  0  0  0  0  0  0
    8.9220   10.5880   32.0550 C   0  0  0  0  0  0  0  0  0  0  0  0
    8.1700    9.8580   31.1550 C   0  0  0  0  0  0  0  0  0  0  0  0
    6.9070   10.3080   30.8360 C   0  0  0  0  0  0  0  0  0  0  0  0
    6.3960   11.4390   31.4530 C   0  0  0  0  0  0  0  0  0  0  0  0
    5.1450   11.8360   31.1370 N   0  0  0  0  0  0  0  0  0  0  0  0
    7.1330   12.1230   32.3540 N   0  0  0  0  0  0  0  0  0  0  0  0
   10.7510   14.0630   35.0630 N   0  0  0  0  0  0  0  0  0  0  0  0
   12.6320   14.8370   33.8910 C   0  0  0  0  0  0  0  0  0  0  0  0
   13.4870   15.8700   33.5380 C   0  0  0  0  0  0  0  0  0  0  0  0
   13.2550   17.1620   33.9990 C   0  0  0  0  0  0  0  0  0  0  0  0
   12.1810   17.4090   34.8420 C   0  0  0  0  0  0  0  0  0  0  0  0
   11.3340   16.3660   35.1990 C   0  0  0  0  0  0  0  0  0  0  0  0
   11.5590   15.0820   34.7280 C   0  0  0  0  0  0  0  0  0  0  0  0
   14.6460   15.5970   32.6160 C   0  0  0  0  0  0  0  0  0  0  0  0
   16.3780   15.6900   34.3450 C   0  0  0  0  0  0  0  0  0  0  0  0
   15.8280   14.9280   33.2110 N   0  0  0  0  0  0  0  0  0  0  0  0
   15.5510   13.5440   33.6330 C   0  0  0  0  0  0  0  0  0  0  0  0
  1  4  1  0  0  0  0
  1 13  1  0  0  0  0
  2  7  1  0  0  0  0
  2 12  1  0  0  0  0
  2  3  2  0  0  0  0
  3  4  1  0  0  0  0
  4  5  2  0  0  0  0
  5  6  1  0  0  0  0
  6  7  2  0  0  0  0
  7  8  1  0  0  0  0
  8  9  2  0  0  0  0
  9 10  1  0  0  0  0
 10 11  1  0  0  0  0
 10 12  2  0  0  0  0
 13 19  1  0  0  0  0
 14 15  2  0  0  0  0
 14 19  1  0  0  0  0
 15 20  1  0  0  0  0
 15 16  1  0  0  0  0
 16 17  2  0  0  0  0
 17 18  1  0  0  0  0
 18 19  2  0  0  0  0
 20 22  1  0  0  0  0
 21 22  1  0  0  0  0
 22 23  1  0  0  0  0
M  END
>  <COMPND>
    UNNAMED

>  <AUTHOR>
    GENERATED BY OPEN BABEL 2.4.90

>  <MASTER>
        0    0    0    0    0    0    0    0   23    0   23    0

