__3n5p_A_rec_4cwx_hw0_lig_min.pdb
 OpenBabel10201902303D

 27 29  0  0  1  0  0  0  0  0999 V2000
   13.4970   16.2600   37.6260 C   0  0  1  0  0  0  0  0  0  0  0  0
   12.7700   17.4330   38.2720 C   0  0  0  0  0  0  0  0  0  0  0  0
   12.4140   16.8620   39.5560 N   0  0  0  0  0  0  0  0  0  0  0  0
   13.2420   15.7390   39.9560 C   0  0  0  0  0  0  0  0  0  0  0  0
   14.2320   15.6090   38.8050 C   0  0  1  0  0  0  0  0  0  0  0  0
   12.5260   15.3440   37.0780 O   0  0  0  0  0  0  0  0  0  0  0  0
   12.0190   15.7270   35.7940 C   0  0  0  0  0  0  0  0  0  0  0  0
   11.3160   14.5150   35.1960 C   0  0  0  0  0  0  0  0  0  0  0  0
   10.6170   14.8190   33.8730 C   0  0  0  0  0  0  0  0  0  0  0  0
    9.5830   13.7310   33.5630 C   0  0  0  0  0  0  0  0  0  0  0  0
    8.8650   14.1100   32.2830 C   0  0  0  0  0  0  0  0  0  0  0  0
    4.7530   11.7990   31.7170 N   0  0  0  0  0  0  0  0  0  0  0  0
    6.0340   11.9240   31.2610 C   0  0  0  0  0  0  0  0  0  0  0  0
    6.5350   11.1840   30.1750 C   0  0  0  0  0  0  0  0  0  0  0  0
    7.8700   11.3630   29.7580 C   0  0  0  0  0  0  0  0  0  0  0  0
    8.6640   12.3030   30.4360 C   0  0  0  0  0  0  0  0  0  0  0  0
    6.8300   12.7940   31.8980 N   0  0  0  0  0  0  0  0  0  0  0  0
    8.1140   13.0240   31.5170 C   0  0  0  0  0  0  0  0  0  0  0  0
   14.7240   14.1660   38.6470 C   0  0  0  0  0  0  0  0  0  0  0  0
   15.9160   14.1600   37.7140 C   0  0  0  0  0  0  0  0  0  0  0  0
   15.6760   13.9700   36.3930 N   0  0  0  0  0  0  0  0  0  0  0  0
   16.6640   13.9560   35.4610 C   0  0  0  0  0  0  0  0  0  0  0  0
   16.3360   13.7520   34.1510 N   0  0  0  0  0  0  0  0  0  0  0  0
   17.9880   14.1530   35.8670 C   0  0  0  0  0  0  0  0  0  0  0  0
   18.2780   14.3540   37.2220 C   0  0  0  0  0  0  0  0  0  0  0  0
   17.2310   14.3610   38.1670 C   0  0  0  0  0  0  0  0  0  0  0  0
   19.7190   14.5570   37.6480 C   0  0  0  0  0  0  0  0  0  0  0  0
  1  6  1  1  0  0  0
  1  2  1  0  0  0  0
  1  5  1  0  0  0  0
  2  3  1  0  0  0  0
  3  4  1  0  0  0  0
  4  5  1  0  0  0  0
  5 19  1  6  0  0  0
  6  7  1  0  0  0  0
  7  8  1  0  0  0  0
  8  9  1  0  0  0  0
  9 10  1  0  0  0  0
 10 11  1  0  0  0  0
 11 18  1  0  0  0  0
 12 13  1  0  0  0  0
 13 14  2  0  0  0  0
 13 17  1  0  0  0  0
 14 15  1  0  0  0  0
 15 16  2  0  0  0  0
 16 18  1  0  0  0  0
 17 18  2  0  0  0  0
 19 20  1  0  0  0  0
 20 21  2  0  0  0  0
 20 26  1  0  0  0  0
 21 22  1  0  0  0  0
 22 23  1  0  0  0  0
 22 24  2  0  0  0  0
 24 25  1  0  0  0  0
 25 27  1  0  0  0  0
 25 26  2  0  0  0  0
M  END
>  <COMPND>
    UNNAMED

>  <AUTHOR>
    GENERATED BY OPEN BABEL 2.4.90

>  <MASTER>
        0    0    0    0    0    0    0    0   27    0   27    0

