__3n5r_A_rec_4uh9_s85_lig_min.pdb
 OpenBabel10201905263D

 23 24  0  0  0  0  0  0  0  0999 V2000
   12.4490    9.8360   33.1350 F   0  0  0  0  0  0  0  0  0  0  0  0
   12.3180   11.1190   33.5850 C   0  0  0  0  0  0  0  0  0  0  0  0
   13.4140   11.8920   34.0360 C   0  0  0  0  0  0  0  0  0  0  0  0
   13.2750   13.2260   34.4560 C   0  0  0  0  0  0  0  0  0  0  0  0
   11.0530   11.7040   33.5490 C   0  0  0  0  0  0  0  0  0  0  0  0
   10.8940   13.0230   33.9710 C   0  0  0  0  0  0  0  0  0  0  0  0
   11.9770   13.8000   34.4320 C   0  0  0  0  0  0  0  0  0  0  0  0
   14.4470   13.8960   34.9260 N   0  0  0  0  0  0  0  0  0  0  0  0
   15.7750   13.5080   34.3860 C   0  0  0  0  0  0  0  0  0  0  0  0
   14.3550   14.9350   35.9860 C   0  0  0  0  0  0  0  0  0  0  0  0
   13.9480   14.3000   37.3300 C   0  0  0  0  0  0  0  0  0  0  0  0
   15.0830   13.5420   37.9190 N   0  0  0  0  0  0  0  0  0  0  0  0
   16.2850   14.3790   38.1200 C   0  0  0  0  0  0  0  0  0  0  0  0
    9.4800   13.4910   33.8770 C   0  0  0  0  0  0  0  0  0  0  0  0
    9.1360   13.8320   32.4470 C   0  0  0  0  0  0  0  0  0  0  0  0
    8.2360   12.8220   31.7090 C   0  0  0  0  0  0  0  0  0  0  0  0
    6.9090   12.7770   32.0310 N   0  0  0  0  0  0  0  0  0  0  0  0
    6.0460   11.9860   31.3990 C   0  0  0  0  0  0  0  0  0  0  0  0
    4.7710   12.0750   31.8170 N   0  0  0  0  0  0  0  0  0  0  0  0
    6.4710   11.1570   30.3140 C   0  0  0  0  0  0  0  0  0  0  0  0
    7.8420   11.1710   29.9490 C   0  0  0  0  0  0  0  0  0  0  0  0
    8.3990   10.3010   28.8220 C   0  0  0  0  0  0  0  0  0  0  0  0
    8.7290   12.0130   30.6540 C   0  0  0  0  0  0  0  0  0  0  0  0
  1  2  1  0  0  0  0
  2  5  2  0  0  0  0
  2  3  1  0  0  0  0
  3  4  2  0  0  0  0
  4  7  1  0  0  0  0
  4  8  1  0  0  0  0
  5  6  1  0  0  0  0
  6 14  1  0  0  0  0
  6  7  2  0  0  0  0
  8  9  1  0  0  0  0
  8 10  1  0  0  0  0
 10 11  1  0  0  0  0
 11 12  1  0  0  0  0
 12 13  1  0  0  0  0
 14 15  1  0  0  0  0
 15 16  1  0  0  0  0
 16 23  2  0  0  0  0
 16 17  1  0  0  0  0
 17 18  2  0  0  0  0
 18 20  1  0  0  0  0
 18 19  1  0  0  0  0
 20 21  2  0  0  0  0
 21 22  1  0  0  0  0
 21 23  1  0  0  0  0
M  END
>  <COMPND>
    UNNAMED

>  <AUTHOR>
    GENERATED BY OPEN BABEL 2.4.90

>  <MASTER>
        0    0    0    0    0    0    0    0   23    0   23    0

