__3n5s_A_rec_4uh9_s85_lig_min.pdb
 OpenBabel10201908033D

 23 24  0  0  0  0  0  0  0  0999 V2000
   11.9070    9.7020   33.5990 F   0  0  0  0  0  0  0  0  0  0  0  0
   11.9360   11.0430   33.8550 C   0  0  0  0  0  0  0  0  0  0  0  0
   13.1330   11.7480   34.1260 C   0  0  0  0  0  0  0  0  0  0  0  0
   13.1580   13.1360   34.3460 C   0  0  0  0  0  0  0  0  0  0  0  0
   10.7380   11.7520   33.7960 C   0  0  0  0  0  0  0  0  0  0  0  0
   10.7420   13.1280   34.0210 C   0  0  0  0  0  0  0  0  0  0  0  0
   11.9260   13.8400   34.3030 C   0  0  0  0  0  0  0  0  0  0  0  0
   14.4200   13.7350   34.6480 N   0  0  0  0  0  0  0  0  0  0  0  0
   15.5320   13.6280   33.6680 C   0  0  0  0  0  0  0  0  0  0  0  0
   14.6480   14.4130   35.9510 C   0  0  0  0  0  0  0  0  0  0  0  0
   14.4870   13.4150   37.1140 C   0  0  0  0  0  0  0  0  0  0  0  0
   15.6100   12.4400   37.1300 N   0  0  0  0  0  0  0  0  0  0  0  0
   16.2510   12.3300   38.4580 C   0  0  0  0  0  0  0  0  0  0  0  0
    9.3790   13.7290   33.9310 C   0  0  0  0  0  0  0  0  0  0  0  0
    9.0360   14.0340   32.4910 C   0  0  0  0  0  0  0  0  0  0  0  0
    8.2200   12.9580   31.7490 C   0  0  0  0  0  0  0  0  0  0  0  0
    6.8960   12.8180   32.0570 N   0  0  0  0  0  0  0  0  0  0  0  0
    6.0990   11.9650   31.4200 C   0  0  0  0  0  0  0  0  0  0  0  0
    4.8170   11.9630   31.8230 N   0  0  0  0  0  0  0  0  0  0  0  0
    6.5960   11.1650   30.3430 C   0  0  0  0  0  0  0  0  0  0  0  0
    7.9650   11.2760   29.9930 C   0  0  0  0  0  0  0  0  0  0  0  0
    8.5970   10.4440   28.8760 C   0  0  0  0  0  0  0  0  0  0  0  0
    8.7810   12.1830   30.7030 C   0  0  0  0  0  0  0  0  0  0  0  0
  1  2  1  0  0  0  0
  2  5  2  0  0  0  0
  2  3  1  0  0  0  0
  3  4  2  0  0  0  0
  4  7  1  0  0  0  0
  4  8  1  0  0  0  0
  5  6  1  0  0  0  0
  6 14  1  0  0  0  0
  6  7  2  0  0  0  0
  8  9  1  0  0  0  0
  8 10  1  0  0  0  0
 10 11  1  0  0  0  0
 11 12  1  0  0  0  0
 12 13  1  0  0  0  0
 14 15  1  0  0  0  0
 15 16  1  0  0  0  0
 16 23  2  0  0  0  0
 16 17  1  0  0  0  0
 17 18  2  0  0  0  0
 18 20  1  0  0  0  0
 18 19  1  0  0  0  0
 20 21  2  0  0  0  0
 21 22  1  0  0  0  0
 21 23  1  0  0  0  0
M  END
>  <COMPND>
    UNNAMED

>  <AUTHOR>
    GENERATED BY OPEN BABEL 2.4.90

>  <MASTER>
        0    0    0    0    0    0    0    0   23    0   23    0

