__3nld_A_rec_5adn_2sn_lig_min.pdb
 OpenBabel10201903173D

 23 25  0  0  0  0  0  0  0  0999 V2000
   11.7800   11.2510   33.6660 C   0  0  0  0  0  0  0  0  0  0  0  0
    8.2250   11.0680   32.3230 C   0  0  0  0  0  0  0  0  0  0  0  0
    9.4020   11.5500   32.8950 C   0  0  0  0  0  0  0  0  0  0  0  0
   10.5180   10.7290   33.0310 C   0  0  0  0  0  0  0  0  0  0  0  0
   10.4740    9.4170   32.5870 C   0  0  0  0  0  0  0  0  0  0  0  0
    9.3090    8.9440   32.0030 C   0  0  0  0  0  0  0  0  0  0  0  0
    8.1910    9.7590   31.8780 C   0  0  0  0  0  0  0  0  0  0  0  0
    7.0370    9.2410   31.3220 C   0  0  0  0  0  0  0  0  0  0  0  0
    5.9460   10.0710   31.1820 C   0  0  0  0  0  0  0  0  0  0  0  0
    6.0020   11.3770   31.6430 C   0  0  0  0  0  0  0  0  0  0  0  0
    4.9050   12.1540   31.5140 N   0  0  0  0  0  0  0  0  0  0  0  0
    7.1280   11.8570   32.2120 N   0  0  0  0  0  0  0  0  0  0  0  0
   11.4400   12.2480   34.6480 N   0  0  0  0  0  0  0  0  0  0  0  0
   12.9480   13.7800   33.7060 C   0  0  0  0  0  0  0  0  0  0  0  0
   13.2940   15.0840   33.3870 C   0  0  0  0  0  0  0  0  0  0  0  0
   12.4250   16.1320   33.6740 C   0  0  0  0  0  0  0  0  0  0  0  0
   11.2210   15.8710   34.3130 C   0  0  0  0  0  0  0  0  0  0  0  0
   10.8860   14.5620   34.6390 C   0  0  0  0  0  0  0  0  0  0  0  0
   11.7480   13.5180   34.3400 C   0  0  0  0  0  0  0  0  0  0  0  0
   14.5980   15.3600   32.6850 C   0  0  0  0  0  0  0  0  0  0  0  0
   15.6630   16.7210   34.4210 C   0  0  0  0  0  0  0  0  0  0  0  0
   15.7920   15.5440   33.5460 N   0  0  0  0  0  0  0  0  0  0  0  0
   16.0990   14.3540   34.3600 C   0  0  0  0  0  0  0  0  0  0  0  0
  1  4  1  0  0  0  0
  1 13  1  0  0  0  0
  2  7  1  0  0  0  0
  2 12  1  0  0  0  0
  2  3  2  0  0  0  0
  3  4  1  0  0  0  0
  4  5  2  0  0  0  0
  5  6  1  0  0  0  0
  6  7  2  0  0  0  0
  7  8  1  0  0  0  0
  8  9  2  0  0  0  0
  9 10  1  0  0  0  0
 10 11  1  0  0  0  0
 10 12  2  0  0  0  0
 13 19  1  0  0  0  0
 14 15  2  0  0  0  0
 14 19  1  0  0  0  0
 15 20  1  0  0  0  0
 15 16  1  0  0  0  0
 16 17  2  0  0  0  0
 17 18  1  0  0  0  0
 18 19  2  0  0  0  0
 20 22  1  0  0  0  0
 21 22  1  0  0  0  0
 22 23  1  0  0  0  0
M  END
>  <COMPND>
    UNNAMED

>  <AUTHOR>
    GENERATED BY OPEN BABEL 2.4.90

>  <MASTER>
        0    0    0    0    0    0    0    0   23    0   23    0

