__3nlt_A_rec_4uh7_4v4_lig_min.pdb
 OpenBabel10201904113D

 22 23  0  0  0  0  0  0  0  0999 V2000
   10.6390   12.7530   33.8520 C   0  0  0  0  0  0  0  0  0  0  0  0
   10.7640   11.3730   33.6850 C   0  0  0  0  0  0  0  0  0  0  0  0
   12.0080   10.7730   33.8610 C   0  0  0  0  0  0  0  0  0  0  0  0
   13.1160   11.5520   34.1970 C   0  0  0  0  0  0  0  0  0  0  0  0
   12.9960   12.9290   34.3600 C   0  0  0  0  0  0  0  0  0  0  0  0
   11.7480   13.5340   34.1870 C   0  0  0  0  0  0  0  0  0  0  0  0
   15.3970   13.4680   34.0490 C   0  0  0  0  0  0  0  0  0  0  0  0
   14.1250   13.6800   34.7230 N   0  0  0  0  0  0  0  0  0  0  0  0
   14.0440   14.6480   35.8110 C   0  0  0  0  0  0  0  0  0  0  0  0
   15.1830   14.2720   36.7550 C   0  0  0  0  0  0  0  0  0  0  0  0
   14.7390   13.6170   37.9720 N   0  0  0  0  0  0  0  0  0  0  0  0
   15.0730   14.1940   39.2610 C   0  0  0  0  0  0  0  0  0  0  0  0
    9.2870   13.3870   33.6530 C   0  0  0  0  0  0  0  0  0  0  0  0
    9.0710   13.6490   32.1660 C   0  0  0  0  0  0  0  0  0  0  0  0
    6.8140   12.6620   31.8940 N   0  0  0  0  0  0  0  0  0  0  0  0
    5.9100   11.8340   31.3510 C   0  0  0  0  0  0  0  0  0  0  0  0
    4.6320   11.9660   31.7810 N   0  0  0  0  0  0  0  0  0  0  0  0
    6.2960   10.8850   30.3850 C   0  0  0  0  0  0  0  0  0  0  0  0
    7.6420   10.8380   30.0000 C   0  0  0  0  0  0  0  0  0  0  0  0
    8.5500   11.7250   30.5810 C   0  0  0  0  0  0  0  0  0  0  0  0
    8.1130   12.6450   31.5350 C   0  0  0  0  0  0  0  0  0  0  0  0
    8.1520    9.8480   28.9820 C   0  0  0  0  0  0  0  0  0  0  0  0
  1  2  2  0  0  0  0
  1 13  1  0  0  0  0
  1  6  1  0  0  0  0
  2  3  1  0  0  0  0
  3  4  2  0  0  0  0
  4  5  1  0  0  0  0
  5  6  2  0  0  0  0
  5  8  1  0  0  0  0
  7  8  1  0  0  0  0
  8  9  1  0  0  0  0
  9 10  1  0  0  0  0
 10 11  1  0  0  0  0
 11 12  1  0  0  0  0
 13 14  1  0  0  0  0
 14 21  1  0  0  0  0
 15 16  2  0  0  0  0
 15 21  1  0  0  0  0
 16 18  1  0  0  0  0
 16 17  1  0  0  0  0
 18 19  2  0  0  0  0
 19 22  1  0  0  0  0
 19 20  1  0  0  0  0
 20 21  2  0  0  0  0
M  END
>  <COMPND>
    UNNAMED

>  <AUTHOR>
    GENERATED BY OPEN BABEL 2.4.90

>  <MASTER>
        0    0    0    0    0    0    0    0   22    0   22    0

