__3nlu_A_rec_5adn_2sn_lig_min.pdb
 OpenBabel10191923413D

 23 25  0  0  0  0  0  0  0  0999 V2000
   11.5160   12.3060   34.9590 C   0  0  0  0  0  0  0  0  0  0  0  0
    8.4260   11.8140   32.7930 C   0  0  0  0  0  0  0  0  0  0  0  0
    9.3190   12.3370   33.7290 C   0  0  0  0  0  0  0  0  0  0  0  0
   10.5650   11.7490   33.9330 C   0  0  0  0  0  0  0  0  0  0  0  0
   10.9370   10.6370   33.1950 C   0  0  0  0  0  0  0  0  0  0  0  0
   10.0570   10.1300   32.2520 C   0  0  0  0  0  0  0  0  0  0  0  0
    8.8090   10.7080   32.0560 C   0  0  0  0  0  0  0  0  0  0  0  0
    7.9440   10.1530   31.1330 C   0  0  0  0  0  0  0  0  0  0  0  0
    6.7210   10.7550   30.9330 C   0  0  0  0  0  0  0  0  0  0  0  0
    6.3580   11.8590   31.6890 C   0  0  0  0  0  0  0  0  0  0  0  0
    5.1400   12.4070   31.4860 N   0  0  0  0  0  0  0  0  0  0  0  0
    7.2030   12.3700   32.6090 N   0  0  0  0  0  0  0  0  0  0  0  0
   11.0060   13.5620   35.4460 N   0  0  0  0  0  0  0  0  0  0  0  0
   12.7790   14.5290   34.2480 C   0  0  0  0  0  0  0  0  0  0  0  0
   13.5140   15.6460   33.8830 C   0  0  0  0  0  0  0  0  0  0  0  0
   13.1520   16.9080   34.3460 C   0  0  0  0  0  0  0  0  0  0  0  0
   12.0690   17.0410   35.2030 C   0  0  0  0  0  0  0  0  0  0  0  0
   11.3420   15.9140   35.5720 C   0  0  0  0  0  0  0  0  0  0  0  0
   11.6970   14.6610   35.0990 C   0  0  0  0  0  0  0  0  0  0  0  0
   14.6830   15.4970   32.9460 C   0  0  0  0  0  0  0  0  0  0  0  0
   16.4760   16.1430   34.4840 C   0  0  0  0  0  0  0  0  0  0  0  0
   15.9800   15.1140   33.5550 N   0  0  0  0  0  0  0  0  0  0  0  0
   15.9290   13.8120   34.2410 C   0  0  0  0  0  0  0  0  0  0  0  0
  1  4  1  0  0  0  0
  1 13  1  0  0  0  0
  2  7  1  0  0  0  0
  2 12  1  0  0  0  0
  2  3  2  0  0  0  0
  3  4  1  0  0  0  0
  4  5  2  0  0  0  0
  5  6  1  0  0  0  0
  6  7  2  0  0  0  0
  7  8  1  0  0  0  0
  8  9  2  0  0  0  0
  9 10  1  0  0  0  0
 10 11  1  0  0  0  0
 10 12  2  0  0  0  0
 13 19  1  0  0  0  0
 14 15  2  0  0  0  0
 14 19  1  0  0  0  0
 15 20  1  0  0  0  0
 15 16  1  0  0  0  0
 16 17  2  0  0  0  0
 17 18  1  0  0  0  0
 18 19  2  0  0  0  0
 20 22  1  0  0  0  0
 21 22  1  0  0  0  0
 22 23  1  0  0  0  0
M  END
>  <COMPND>
    UNNAMED

>  <AUTHOR>
    GENERATED BY OPEN BABEL 2.4.90

>  <MASTER>
        0    0    0    0    0    0    0    0   23    0   23    0

