__4c3a_A_rec_4jsm_qj7_lig_min.pdb
 OpenBabel10201903023D

 27 29  0  0  0  0  0  0  0  0999 V2000
   13.4890   13.9530   34.7610 C   0  0  0  0  0  0  0  0  0  0  0  0
   12.3280   13.1890   34.6040 C   0  0  0  0  0  0  0  0  0  0  0  0
   13.5390   15.2550   34.2770 C   0  0  0  0  0  0  0  0  0  0  0  0
   12.4630   15.7820   33.6680 N   0  0  0  0  0  0  0  0  0  0  0  0
   11.3330   15.0650   33.5060 C   0  0  0  0  0  0  0  0  0  0  0  0
   11.2280   13.7450   33.9700 C   0  0  0  0  0  0  0  0  0  0  0  0
   14.7100   13.3740   35.4470 C   0  0  0  0  0  0  0  0  0  0  0  0
   14.6840   13.4840   36.9030 N   0  0  0  0  0  0  0  0  0  0  0  0
   15.5540   14.5430   37.4050 C   0  0  0  0  0  0  0  0  0  0  0  0
   16.0880   14.3820   38.8270 C   0  0  0  0  0  0  0  0  0  0  0  0
   20.9240   13.6450   38.3830 F   0  0  0  0  0  0  0  0  0  0  0  0
   19.9100   14.4980   38.6640 C   0  0  0  0  0  0  0  0  0  0  0  0
   20.1650   15.8380   39.0030 C   0  0  0  0  0  0  0  0  0  0  0  0
   19.0930   16.7000   39.2760 C   0  0  0  0  0  0  0  0  0  0  0  0
   17.7740   16.2350   39.2210 C   0  0  0  0  0  0  0  0  0  0  0  0
   18.5890   14.0420   38.6130 C   0  0  0  0  0  0  0  0  0  0  0  0
   17.5160   14.9000   38.8930 C   0  0  0  0  0  0  0  0  0  0  0  0
   10.0630   13.0120   33.8140 O   0  0  0  0  0  0  0  0  0  0  0  0
    8.9540   13.5460   33.0980 C   0  0  0  0  0  0  0  0  0  0  0  0
    8.2050   12.6180   32.1550 C   0  0  0  0  0  0  0  0  0  0  0  0
    6.8760   12.4970   32.4230 N   0  0  0  0  0  0  0  0  0  0  0  0
    6.0690   11.7540   31.6370 C   0  0  0  0  0  0  0  0  0  0  0  0
    4.7530   11.6820   31.9670 N   0  0  0  0  0  0  0  0  0  0  0  0
    6.5930   11.0540   30.5300 C   0  0  0  0  0  0  0  0  0  0  0  0
    7.9660   11.1650   30.2350 C   0  0  0  0  0  0  0  0  0  0  0  0
    8.7870   11.9550   31.0550 C   0  0  0  0  0  0  0  0  0  0  0  0
    8.5300   10.4250   29.0360 C   0  0  0  0  0  0  0  0  0  0  0  0
  1  2  2  0  0  0  0
  1  7  1  0  0  0  0
  1  3  1  0  0  0  0
  2  6  1  0  0  0  0
  3  4  2  0  0  0  0
  4  5  1  0  0  0  0
  5  6  2  0  0  0  0
  6 18  1  0  0  0  0
  7  8  1  0  0  0  0
  8  9  1  0  0  0  0
  9 10  1  0  0  0  0
 10 17  1  0  0  0  0
 11 12  1  0  0  0  0
 12 16  2  0  0  0  0
 12 13  1  0  0  0  0
 13 14  2  0  0  0  0
 14 15  1  0  0  0  0
 15 17  2  0  0  0  0
 16 17  1  0  0  0  0
 18 19  1  0  0  0  0
 19 20  1  0  0  0  0
 20 26  2  0  0  0  0
 20 21  1  0  0  0  0
 21 22  2  0  0  0  0
 22 24  1  0  0  0  0
 22 23  1  0  0  0  0
 24 25  2  0  0  0  0
 25 27  1  0  0  0  0
 25 26  1  0  0  0  0
M  END
>  <COMPND>
    UNNAMED

>  <AUTHOR>
    GENERATED BY OPEN BABEL 2.4.90

>  <MASTER>
        0    0    0    0    0    0    0    0   27    0   27    0

