__4c3a_A_rec_4uh9_s85_lig_min.pdb
 OpenBabel10191922463D

 23 24  0  0  0  0  0  0  0  0999 V2000
   12.2400    9.9470   33.4770 F   0  0  0  0  0  0  0  0  0  0  0  0
   12.1470   11.2780   33.7690 C   0  0  0  0  0  0  0  0  0  0  0  0
   13.2750   12.0870   34.0380 C   0  0  0  0  0  0  0  0  0  0  0  0
   13.1730   13.4650   34.2940 C   0  0  0  0  0  0  0  0  0  0  0  0
   10.8850   11.8690   33.7510 C   0  0  0  0  0  0  0  0  0  0  0  0
   10.7620   13.2340   34.0120 C   0  0  0  0  0  0  0  0  0  0  0  0
   11.8790   14.0480   34.2920 C   0  0  0  0  0  0  0  0  0  0  0  0
   14.3790   14.1750   34.5900 N   0  0  0  0  0  0  0  0  0  0  0  0
   15.6430   13.7730   33.9220 C   0  0  0  0  0  0  0  0  0  0  0  0
   14.3900   15.2680   35.5970 C   0  0  0  0  0  0  0  0  0  0  0  0
   13.9860   14.7290   36.9830 C   0  0  0  0  0  0  0  0  0  0  0  0
   15.0230   13.8030   37.5100 N   0  0  0  0  0  0  0  0  0  0  0  0
   15.6730   14.3120   38.7370 C   0  0  0  0  0  0  0  0  0  0  0  0
    9.3470   13.7040   33.9620 C   0  0  0  0  0  0  0  0  0  0  0  0
    8.9500   14.0180   32.5390 C   0  0  0  0  0  0  0  0  0  0  0  0
    8.1560   12.9240   31.8010 C   0  0  0  0  0  0  0  0  0  0  0  0
    6.8380   12.7510   32.1170 N   0  0  0  0  0  0  0  0  0  0  0  0
    6.0590   11.8790   31.4840 C   0  0  0  0  0  0  0  0  0  0  0  0
    4.7790   11.8450   31.8950 N   0  0  0  0  0  0  0  0  0  0  0  0
    6.5690   11.0910   30.4040 C   0  0  0  0  0  0  0  0  0  0  0  0
    7.9330   11.2370   30.0460 C   0  0  0  0  0  0  0  0  0  0  0  0
    8.5780   10.4210   28.9250 C   0  0  0  0  0  0  0  0  0  0  0  0
    8.7310   12.1620   30.7520 C   0  0  0  0  0  0  0  0  0  0  0  0
  1  2  1  0  0  0  0
  2  5  2  0  0  0  0
  2  3  1  0  0  0  0
  3  4  2  0  0  0  0
  4  7  1  0  0  0  0
  4  8  1  0  0  0  0
  5  6  1  0  0  0  0
  6 14  1  0  0  0  0
  6  7  2  0  0  0  0
  8  9  1  0  0  0  0
  8 10  1  0  0  0  0
 10 11  1  0  0  0  0
 11 12  1  0  0  0  0
 12 13  1  0  0  0  0
 14 15  1  0  0  0  0
 15 16  1  0  0  0  0
 16 23  2  0  0  0  0
 16 17  1  0  0  0  0
 17 18  2  0  0  0  0
 18 20  1  0  0  0  0
 18 19  1  0  0  0  0
 20 21  2  0  0  0  0
 21 22  1  0  0  0  0
 21 23  1  0  0  0  0
M  END
>  <COMPND>
    UNNAMED

>  <AUTHOR>
    GENERATED BY OPEN BABEL 2.4.90

>  <MASTER>
        0    0    0    0    0    0    0    0   23    0   23    0

