__4car_A_rec_5fj2_xeb_lig_min.pdb
 OpenBabel10201901413D

 23 25  0  0  0  0  0  0  0  0999 V2000
    7.5310   12.4060   32.4730 N   0  0  0  0  0  0  0  0  0  0  0  0
    6.5690   11.7960   31.7480 C   0  0  0  0  0  0  0  0  0  0  0  0
    5.3640   12.3980   31.5920 N   0  0  0  0  0  0  0  0  0  0  0  0
    6.8120   10.5550   31.1550 C   0  0  0  0  0  0  0  0  0  0  0  0
    8.0450    9.9330   31.3180 C   0  0  0  0  0  0  0  0  0  0  0  0
    9.0200   10.5820   32.0660 C   0  0  0  0  0  0  0  0  0  0  0  0
   10.2660    9.9850   32.2550 C   0  0  0  0  0  0  0  0  0  0  0  0
   11.2320   10.6380   33.0190 C   0  0  0  0  0  0  0  0  0  0  0  0
   10.9700   11.8870   33.5910 C   0  0  0  0  0  0  0  0  0  0  0  0
    9.7230   12.4840   33.4010 C   0  0  0  0  0  0  0  0  0  0  0  0
    8.7450   11.8270   32.6410 C   0  0  0  0  0  0  0  0  0  0  0  0
   12.0370   12.6000   34.3950 C   0  0  0  0  0  0  0  0  0  0  0  0
   12.3390   13.7820   33.6400 O   0  0  0  0  0  0  0  0  0  0  0  0
   13.3850   14.6380   33.9290 C   0  0  0  0  0  0  0  0  0  0  0  0
   13.9700   15.3550   32.8860 C   0  0  0  0  0  0  0  0  0  0  0  0
   15.0210   16.2330   33.1210 C   0  0  0  0  0  0  0  0  0  0  0  0
   15.5010   16.4000   34.4200 C   0  0  0  0  0  0  0  0  0  0  0  0
   14.9240   15.6920   35.4750 C   0  0  0  0  0  0  0  0  0  0  0  0
   13.8660   14.8110   35.2320 C   0  0  0  0  0  0  0  0  0  0  0  0
   16.8630   17.5410   34.7040 Cl  0  0  0  0  0  0  0  0  0  0  0  0
   15.4410   15.8550   36.8940 C   0  0  0  0  0  0  0  0  0  0  0  0
   16.4930   14.8530   37.1800 N   0  0  0  0  0  0  0  0  0  0  0  0
   16.4820   14.4570   38.6020 C   0  0  0  0  0  0  0  0  0  0  0  0
  1  2  2  0  0  0  0
  1 11  1  0  0  0  0
  2  4  1  0  0  0  0
  2  3  1  0  0  0  0
  4  5  2  0  0  0  0
  5  6  1  0  0  0  0
  6  7  2  0  0  0  0
  6 11  1  0  0  0  0
  7  8  1  0  0  0  0
  8  9  2  0  0  0  0
  9 10  1  0  0  0  0
  9 12  1  0  0  0  0
 10 11  2  0  0  0  0
 12 13  1  0  0  0  0
 13 14  1  0  0  0  0
 14 15  2  0  0  0  0
 14 19  1  0  0  0  0
 15 16  1  0  0  0  0
 16 17  2  0  0  0  0
 17 20  1  0  0  0  0
 17 18  1  0  0  0  0
 18 19  2  0  0  0  0
 18 21  1  0  0  0  0
 21 22  1  0  0  0  0
 22 23  1  0  0  0  0
M  END
>  <COMPND>
    UNNAMED

>  <AUTHOR>
    GENERATED BY OPEN BABEL 2.4.90

>  <MASTER>
        0    0    0    0    0    0    0    0   23    0   23    0

