__4car_A_rec_4uh7_4v4_lig_min.pdb
 OpenBabel10201901553D

 22 23  0  0  0  0  0  0  0  0999 V2000
   10.6140   12.9320   33.6700 C   0  0  0  0  0  0  0  0  0  0  0  0
   10.7300   11.5980   33.2760 C   0  0  0  0  0  0  0  0  0  0  0  0
   11.9830   10.9930   33.2710 C   0  0  0  0  0  0  0  0  0  0  0  0
   13.1100   11.7210   33.6540 C   0  0  0  0  0  0  0  0  0  0  0  0
   12.9990   13.0530   34.0440 C   0  0  0  0  0  0  0  0  0  0  0  0
   11.7410   13.6620   34.0530 C   0  0  0  0  0  0  0  0  0  0  0  0
   15.4420   13.4390   33.8580 C   0  0  0  0  0  0  0  0  0  0  0  0
   14.1490   13.7500   34.4480 N   0  0  0  0  0  0  0  0  0  0  0  0
   14.0640   14.7610   35.4950 C   0  0  0  0  0  0  0  0  0  0  0  0
   15.2480   14.4730   36.4140 C   0  0  0  0  0  0  0  0  0  0  0  0
   14.8850   13.7610   37.6270 N   0  0  0  0  0  0  0  0  0  0  0  0
   15.4150   14.2030   38.9030 C   0  0  0  0  0  0  0  0  0  0  0  0
    9.2510   13.5720   33.6650 C   0  0  0  0  0  0  0  0  0  0  0  0
    8.8360   13.8560   32.2250 C   0  0  0  0  0  0  0  0  0  0  0  0
    6.7590   12.5060   32.1250 N   0  0  0  0  0  0  0  0  0  0  0  0
    5.9520   11.5590   31.6250 C   0  0  0  0  0  0  0  0  0  0  0  0
    4.7260   11.4470   32.1930 N   0  0  0  0  0  0  0  0  0  0  0  0
    6.3810   10.7370   30.5660 C   0  0  0  0  0  0  0  0  0  0  0  0
    7.6630   10.9430   30.0420 C   0  0  0  0  0  0  0  0  0  0  0  0
    8.4690   11.9460   30.5820 C   0  0  0  0  0  0  0  0  0  0  0  0
    7.9940   12.7310   31.6330 C   0  0  0  0  0  0  0  0  0  0  0  0
    8.2140   10.1040   28.9150 C   0  0  0  0  0  0  0  0  0  0  0  0
  1  2  2  0  0  0  0
  1 13  1  0  0  0  0
  1  6  1  0  0  0  0
  2  3  1  0  0  0  0
  3  4  2  0  0  0  0
  4  5  1  0  0  0  0
  5  6  2  0  0  0  0
  5  8  1  0  0  0  0
  7  8  1  0  0  0  0
  8  9  1  0  0  0  0
  9 10  1  0  0  0  0
 10 11  1  0  0  0  0
 11 12  1  0  0  0  0
 13 14  1  0  0  0  0
 14 21  1  0  0  0  0
 15 16  2  0  0  0  0
 15 21  1  0  0  0  0
 16 18  1  0  0  0  0
 16 17  1  0  0  0  0
 18 19  2  0  0  0  0
 19 22  1  0  0  0  0
 19 20  1  0  0  0  0
 20 21  2  0  0  0  0
M  END
>  <COMPND>
    UNNAMED

>  <AUTHOR>
    GENERATED BY OPEN BABEL 2.4.90

>  <MASTER>
        0    0    0    0    0    0    0    0   22    0   22    0

