__4cu0_A_rec_5fvz_w67_lig_min.pdb
 OpenBabel10201900533D

 22 23  0  0  0  0  0  0  0  0999 V2000
    8.2800   15.1940   32.1850 C   0  0  0  0  0  0  0  0  0  0  0  0
    8.2980   17.7600   34.9030 N   0  0  0  0  0  0  0  0  0  0  0  0
    7.9220   17.0350   33.8480 C   0  0  0  0  0  0  0  0  0  0  0  0
    8.7260   15.9910   33.3810 C   0  0  0  0  0  0  0  0  0  0  0  0
    9.9230   15.6840   34.0160 C   0  0  0  0  0  0  0  0  0  0  0  0
   10.2940   16.4610   35.1110 C   0  0  0  0  0  0  0  0  0  0  0  0
    9.4530   17.4880   35.5330 C   0  0  0  0  0  0  0  0  0  0  0  0
   11.5780   16.1790   35.8570 C   0  0  0  0  0  0  0  0  0  0  0  0
   12.2490   14.9450   35.2520 C   0  0  0  0  0  0  0  0  0  0  0  0
   12.3190   13.8080   36.2610 C   0  0  0  0  0  0  0  0  0  0  0  0
   14.1710   13.1950   34.8830 C   0  0  0  0  0  0  0  0  0  0  0  0
   13.6410   13.1670   36.2510 N   0  0  0  0  0  0  0  0  0  0  0  0
   14.5670   13.9130   37.1070 C   0  0  0  0  0  0  0  0  0  0  0  0
    9.1110   13.9180   32.1110 C   0  0  0  0  0  0  0  0  0  0  0  0
    6.9120   12.8130   31.8810 N   0  0  0  0  0  0  0  0  0  0  0  0
    6.0700   11.9050   31.3590 C   0  0  0  0  0  0  0  0  0  0  0  0
    4.7830   11.9010   31.7880 N   0  0  0  0  0  0  0  0  0  0  0  0
    6.5290   10.9780   30.4130 C   0  0  0  0  0  0  0  0  0  0  0  0
    7.8640   11.0250   30.0030 C   0  0  0  0  0  0  0  0  0  0  0  0
    8.7160   11.9810   30.5540 C   0  0  0  0  0  0  0  0  0  0  0  0
    8.2130   12.8640   31.5010 C   0  0  0  0  0  0  0  0  0  0  0  0
    8.3940   10.0530   28.9830 C   0  0  0  0  0  0  0  0  0  0  0  0
  1 14  1  0  0  0  0
  1  4  1  0  0  0  0
  2  3  2  0  0  0  0
  2  7  1  0  0  0  0
  3  4  1  0  0  0  0
  4  5  2  0  0  0  0
  5  6  1  0  0  0  0
  6  8  1  0  0  0  0
  6  7  2  0  0  0  0
  8  9  1  0  0  0  0
  9 10  1  0  0  0  0
 10 12  1  0  0  0  0
 11 12  1  0  0  0  0
 12 13  1  0  0  0  0
 14 21  1  0  0  0  0
 15 16  2  0  0  0  0
 15 21  1  0  0  0  0
 16 18  1  0  0  0  0
 16 17  1  0  0  0  0
 18 19  2  0  0  0  0
 19 22  1  0  0  0  0
 19 20  1  0  0  0  0
 20 21  2  0  0  0  0
M  END
>  <COMPND>
    UNNAMED

>  <AUTHOR>
    GENERATED BY OPEN BABEL 2.4.90

>  <MASTER>
        0    0    0    0    0    0    0    0   22    0   22    0

