__4cwv_A_rec_5adn_2sn_lig_min.pdb
 OpenBabel10191923403D

 23 25  0  0  0  0  0  0  0  0999 V2000
   11.6360   12.4340   35.0970 C   0  0  0  0  0  0  0  0  0  0  0  0
    8.5900   11.8000   32.9070 C   0  0  0  0  0  0  0  0  0  0  0  0
    9.4590   12.3760   33.8340 C   0  0  0  0  0  0  0  0  0  0  0  0
   10.7110   11.8180   34.0810 C   0  0  0  0  0  0  0  0  0  0  0  0
   11.1130   10.6830   33.3950 C   0  0  0  0  0  0  0  0  0  0  0  0
   10.2560   10.1220   32.4610 C   0  0  0  0  0  0  0  0  0  0  0  0
    9.0020   10.6700   32.2230 C   0  0  0  0  0  0  0  0  0  0  0  0
    8.1610   10.0630   31.3100 C   0  0  0  0  0  0  0  0  0  0  0  0
    6.9310   10.6350   31.0680 C   0  0  0  0  0  0  0  0  0  0  0  0
    6.5390   11.7620   31.7710 C   0  0  0  0  0  0  0  0  0  0  0  0
    5.3150   12.2810   31.5270 N   0  0  0  0  0  0  0  0  0  0  0  0
    7.3600   12.3260   32.6820 N   0  0  0  0  0  0  0  0  0  0  0  0
   11.1100   13.7090   35.5070 N   0  0  0  0  0  0  0  0  0  0  0  0
   13.0360   14.6200   34.5220 C   0  0  0  0  0  0  0  0  0  0  0  0
   13.7740   15.7230   34.1220 C   0  0  0  0  0  0  0  0  0  0  0  0
   13.2660   17.0070   34.2910 C   0  0  0  0  0  0  0  0  0  0  0  0
   12.0290   17.1830   34.8930 C   0  0  0  0  0  0  0  0  0  0  0  0
   11.2990   16.0720   35.3010 C   0  0  0  0  0  0  0  0  0  0  0  0
   11.8010   14.7940   35.1190 C   0  0  0  0  0  0  0  0  0  0  0  0
   15.1120   15.5250   33.4600 C   0  0  0  0  0  0  0  0  0  0  0  0
   16.1530   16.0300   35.6190 C   0  0  0  0  0  0  0  0  0  0  0  0
   16.2690   15.2810   34.3570 N   0  0  0  0  0  0  0  0  0  0  0  0
   16.4780   13.8520   34.6470 C   0  0  0  0  0  0  0  0  0  0  0  0
  1  4  1  0  0  0  0
  1 13  1  0  0  0  0
  2  7  1  0  0  0  0
  2 12  1  0  0  0  0
  2  3  2  0  0  0  0
  3  4  1  0  0  0  0
  4  5  2  0  0  0  0
  5  6  1  0  0  0  0
  6  7  2  0  0  0  0
  7  8  1  0  0  0  0
  8  9  2  0  0  0  0
  9 10  1  0  0  0  0
 10 11  1  0  0  0  0
 10 12  2  0  0  0  0
 13 19  1  0  0  0  0
 14 15  2  0  0  0  0
 14 19  1  0  0  0  0
 15 20  1  0  0  0  0
 15 16  1  0  0  0  0
 16 17  2  0  0  0  0
 17 18  1  0  0  0  0
 18 19  2  0  0  0  0
 20 22  1  0  0  0  0
 21 22  1  0  0  0  0
 22 23  1  0  0  0  0
M  END
>  <COMPND>
    UNNAMED

>  <AUTHOR>
    GENERATED BY OPEN BABEL 2.4.90

>  <MASTER>
        0    0    0    0    0    0    0    0   23    0   23    0

