__4cww_A_rec_4uh9_s85_lig_min.pdb
 OpenBabel10201906033D

 23 24  0  0  0  0  0  0  0  0999 V2000
   12.3220    9.5140   33.3790 F   0  0  0  0  0  0  0  0  0  0  0  0
   12.1360   10.8290   33.7000 C   0  0  0  0  0  0  0  0  0  0  0  0
   13.2040   11.7040   34.0060 C   0  0  0  0  0  0  0  0  0  0  0  0
   13.0060   13.0660   34.2920 C   0  0  0  0  0  0  0  0  0  0  0  0
   10.8380   11.3360   33.6750 C   0  0  0  0  0  0  0  0  0  0  0  0
   10.6210   12.6820   33.9650 C   0  0  0  0  0  0  0  0  0  0  0  0
   11.6760   13.5620   34.2820 C   0  0  0  0  0  0  0  0  0  0  0  0
   14.1570   13.8460   34.6240 N   0  0  0  0  0  0  0  0  0  0  0  0
   15.4680   13.5080   34.0130 C   0  0  0  0  0  0  0  0  0  0  0  0
   14.0670   14.9530   35.6120 C   0  0  0  0  0  0  0  0  0  0  0  0
   13.7770   14.3970   37.0200 C   0  0  0  0  0  0  0  0  0  0  0  0
   14.9350   13.6130   37.5240 N   0  0  0  0  0  0  0  0  0  0  0  0
   15.5710   14.2310   38.7080 C   0  0  0  0  0  0  0  0  0  0  0  0
    9.1780   13.0590   33.9030 C   0  0  0  0  0  0  0  0  0  0  0  0
    8.7550   13.2750   32.4690 C   0  0  0  0  0  0  0  0  0  0  0  0
    7.8650   12.1780   31.8540 C   0  0  0  0  0  0  0  0  0  0  0  0
    6.5720   12.0740   32.2830 N   0  0  0  0  0  0  0  0  0  0  0  0
    5.7130   11.2030   31.7600 C   0  0  0  0  0  0  0  0  0  0  0  0
    4.4710   11.2410   32.2740 N   0  0  0  0  0  0  0  0  0  0  0  0
    6.1040   10.3450   30.6850 C   0  0  0  0  0  0  0  0  0  0  0  0
    7.4380   10.4190   30.2110 C   0  0  0  0  0  0  0  0  0  0  0  0
    7.9590    9.5250   29.0850 C   0  0  0  0  0  0  0  0  0  0  0  0
    8.3240   11.3450   30.8030 C   0  0  0  0  0  0  0  0  0  0  0  0
  1  2  1  0  0  0  0
  2  5  2  0  0  0  0
  2  3  1  0  0  0  0
  3  4  2  0  0  0  0
  4  7  1  0  0  0  0
  4  8  1  0  0  0  0
  5  6  1  0  0  0  0
  6 14  1  0  0  0  0
  6  7  2  0  0  0  0
  8  9  1  0  0  0  0
  8 10  1  0  0  0  0
 10 11  1  0  0  0  0
 11 12  1  0  0  0  0
 12 13  1  0  0  0  0
 14 15  1  0  0  0  0
 15 16  1  0  0  0  0
 16 23  2  0  0  0  0
 16 17  1  0  0  0  0
 17 18  2  0  0  0  0
 18 20  1  0  0  0  0
 18 19  1  0  0  0  0
 20 21  2  0  0  0  0
 21 22  1  0  0  0  0
 21 23  1  0  0  0  0
M  END
>  <COMPND>
    UNNAMED

>  <AUTHOR>
    GENERATED BY OPEN BABEL 2.4.90

>  <MASTER>
        0    0    0    0    0    0    0    0   23    0   23    0

