__4cwx_A_rec_5adn_2sn_lig_min.pdb
 OpenBabel10201906563D

 23 25  0  0  0  0  0  0  0  0999 V2000
   11.6640   12.4360   34.5710 C   0  0  0  0  0  0  0  0  0  0  0  0
    8.4200   11.7510   32.7040 C   0  0  0  0  0  0  0  0  0  0  0  0
    9.3900   12.3710   33.4920 C   0  0  0  0  0  0  0  0  0  0  0  0
   10.6290   11.7700   33.7030 C   0  0  0  0  0  0  0  0  0  0  0  0
   10.9160   10.5470   33.1200 C   0  0  0  0  0  0  0  0  0  0  0  0
    9.9580    9.9400   32.3220 C   0  0  0  0  0  0  0  0  0  0  0  0
    8.7180   10.5330   32.1200 C   0  0  0  0  0  0  0  0  0  0  0  0
    7.7760    9.8810   31.3480 C   0  0  0  0  0  0  0  0  0  0  0  0
    6.5600   10.4950   31.1380 C   0  0  0  0  0  0  0  0  0  0  0  0
    6.2840   11.7130   31.7390 C   0  0  0  0  0  0  0  0  0  0  0  0
    5.0720   12.2730   31.5330 N   0  0  0  0  0  0  0  0  0  0  0  0
    7.2040   12.3210   32.5160 N   0  0  0  0  0  0  0  0  0  0  0  0
   11.1120   13.6430   35.1270 N   0  0  0  0  0  0  0  0  0  0  0  0
   13.0400   14.7010   34.3050 C   0  0  0  0  0  0  0  0  0  0  0  0
   13.7510   15.8600   34.0340 C   0  0  0  0  0  0  0  0  0  0  0  0
   13.1900   17.1070   34.2930 C   0  0  0  0  0  0  0  0  0  0  0  0
   11.9250   17.1870   34.8560 C   0  0  0  0  0  0  0  0  0  0  0  0
   11.2220   16.0200   35.1350 C   0  0  0  0  0  0  0  0  0  0  0  0
   11.7770   14.7800   34.8640 C   0  0  0  0  0  0  0  0  0  0  0  0
   15.1210   15.7660   33.4140 C   0  0  0  0  0  0  0  0  0  0  0  0
   16.1290   16.2640   35.5900 C   0  0  0  0  0  0  0  0  0  0  0  0
   16.2530   15.5020   34.3360 N   0  0  0  0  0  0  0  0  0  0  0  0
   16.4210   14.0710   34.6410 C   0  0  0  0  0  0  0  0  0  0  0  0
  1  4  1  0  0  0  0
  1 13  1  0  0  0  0
  2  7  1  0  0  0  0
  2 12  1  0  0  0  0
  2  3  2  0  0  0  0
  3  4  1  0  0  0  0
  4  5  2  0  0  0  0
  5  6  1  0  0  0  0
  6  7  2  0  0  0  0
  7  8  1  0  0  0  0
  8  9  2  0  0  0  0
  9 10  1  0  0  0  0
 10 11  1  0  0  0  0
 10 12  2  0  0  0  0
 13 19  1  0  0  0  0
 14 15  2  0  0  0  0
 14 19  1  0  0  0  0
 15 20  1  0  0  0  0
 15 16  1  0  0  0  0
 16 17  2  0  0  0  0
 17 18  1  0  0  0  0
 18 19  2  0  0  0  0
 20 22  1  0  0  0  0
 21 22  1  0  0  0  0
 22 23  1  0  0  0  0
M  END
>  <COMPND>
    UNNAMED

>  <AUTHOR>
    GENERATED BY OPEN BABEL 2.4.90

>  <MASTER>
        0    0    0    0    0    0    0    0   23    0   23    0

