__4cwx_A_rec_4cwx_hw0_lig_min.pdb
 OpenBabel10201904353D

 27 29  0  0  1  0  0  0  0  0999 V2000
   13.7070   16.2680   37.5860 C   0  0  1  0  0  0  0  0  0  0  0  0
   12.9770   17.4070   38.2880 C   0  0  0  0  0  0  0  0  0  0  0  0
   12.7180   16.8090   39.5830 N   0  0  0  0  0  0  0  0  0  0  0  0
   13.6090   15.7130   39.9200 C   0  0  0  0  0  0  0  0  0  0  0  0
   14.5330   15.6330   38.7110 C   0  0  1  0  0  0  0  0  0  0  0  0
   12.7400   15.3230   37.0840 O   0  0  0  0  0  0  0  0  0  0  0  0
   12.1030   15.7270   35.8660 C   0  0  0  0  0  0  0  0  0  0  0  0
   11.2750   14.5500   35.3670 C   0  0  0  0  0  0  0  0  0  0  0  0
   10.7640   14.7380   33.9400 C   0  0  0  0  0  0  0  0  0  0  0  0
    9.7060   13.6780   33.6160 C   0  0  0  0  0  0  0  0  0  0  0  0
    9.0180   14.0740   32.3250 C   0  0  0  0  0  0  0  0  0  0  0  0
    4.8540   11.8260   31.9060 N   0  0  0  0  0  0  0  0  0  0  0  0
    6.1120   11.9480   31.3900 C   0  0  0  0  0  0  0  0  0  0  0  0
    6.5500   11.2300   30.2620 C   0  0  0  0  0  0  0  0  0  0  0  0
    7.8650   11.4040   29.7840 C   0  0  0  0  0  0  0  0  0  0  0  0
    8.7020   12.3170   30.4450 C   0  0  0  0  0  0  0  0  0  0  0  0
    6.9500   12.7920   32.0080 N   0  0  0  0  0  0  0  0  0  0  0  0
    8.2160   13.0160   31.5700 C   0  0  0  0  0  0  0  0  0  0  0  0
   15.0690   14.2110   38.5060 C   0  0  0  0  0  0  0  0  0  0  0  0
   16.1850   14.2560   37.4840 C   0  0  0  0  0  0  0  0  0  0  0  0
   15.8420   14.1350   36.1780 N   0  0  0  0  0  0  0  0  0  0  0  0
   16.7550   14.1710   35.1720 C   0  0  0  0  0  0  0  0  0  0  0  0
   16.3250   14.0350   33.8830 N   0  0  0  0  0  0  0  0  0  0  0  0
   18.1060   14.3500   35.4840 C   0  0  0  0  0  0  0  0  0  0  0  0
   18.5020   14.4800   36.8210 C   0  0  0  0  0  0  0  0  0  0  0  0
   17.5310   14.4360   37.8430 C   0  0  0  0  0  0  0  0  0  0  0  0
   19.9720   14.6640   37.1430 C   0  0  0  0  0  0  0  0  0  0  0  0
  1  6  1  1  0  0  0
  1  2  1  0  0  0  0
  1  5  1  0  0  0  0
  2  3  1  0  0  0  0
  3  4  1  0  0  0  0
  4  5  1  0  0  0  0
  5 19  1  6  0  0  0
  6  7  1  0  0  0  0
  7  8  1  0  0  0  0
  8  9  1  0  0  0  0
  9 10  1  0  0  0  0
 10 11  1  0  0  0  0
 11 18  1  0  0  0  0
 12 13  1  0  0  0  0
 13 14  2  0  0  0  0
 13 17  1  0  0  0  0
 14 15  1  0  0  0  0
 15 16  2  0  0  0  0
 16 18  1  0  0  0  0
 17 18  2  0  0  0  0
 19 20  1  0  0  0  0
 20 21  2  0  0  0  0
 20 26  1  0  0  0  0
 21 22  1  0  0  0  0
 22 23  1  0  0  0  0
 22 24  2  0  0  0  0
 24 25  1  0  0  0  0
 25 27  1  0  0  0  0
 25 26  2  0  0  0  0
M  END
>  <COMPND>
    UNNAMED

>  <AUTHOR>
    GENERATED BY OPEN BABEL 2.4.90

>  <MASTER>
        0    0    0    0    0    0    0    0   27    0   27    0

