__4d38_A_rec_4uh9_s85_lig_min.pdb
 OpenBabel10201905133D

 23 24  0  0  0  0  0  0  0  0999 V2000
   12.6780    9.3560   33.4830 F   0  0  0  0  0  0  0  0  0  0  0  0
   12.3900   10.6670   33.7320 C   0  0  0  0  0  0  0  0  0  0  0  0
   13.3820   11.6280   34.0400 C   0  0  0  0  0  0  0  0  0  0  0  0
   13.0790   12.9840   34.2520 C   0  0  0  0  0  0  0  0  0  0  0  0
   11.0630   11.0810   33.6270 C   0  0  0  0  0  0  0  0  0  0  0  0
   10.7430   12.4210   33.8440 C   0  0  0  0  0  0  0  0  0  0  0  0
   11.7210   13.3850   34.1620 C   0  0  0  0  0  0  0  0  0  0  0  0
   14.1590   13.8560   34.5950 N   0  0  0  0  0  0  0  0  0  0  0  0
   15.4670   13.7020   33.9070 C   0  0  0  0  0  0  0  0  0  0  0  0
   14.0040   14.8750   35.6660 C   0  0  0  0  0  0  0  0  0  0  0  0
   13.9710   14.2000   37.0510 C   0  0  0  0  0  0  0  0  0  0  0  0
   15.2210   14.4850   37.8040 N   0  0  0  0  0  0  0  0  0  0  0  0
   14.9640   15.0760   39.1340 C   0  0  0  0  0  0  0  0  0  0  0  0
    9.2820   12.6930   33.7030 C   0  0  0  0  0  0  0  0  0  0  0  0
    8.9110   12.8110   32.2430 C   0  0  0  0  0  0  0  0  0  0  0  0
    7.9590   11.7300   31.6980 C   0  0  0  0  0  0  0  0  0  0  0  0
    6.6610   11.7310   32.1240 N   0  0  0  0  0  0  0  0  0  0  0  0
    5.7530   10.8790   31.6550 C   0  0  0  0  0  0  0  0  0  0  0  0
    4.5140   11.0240   32.1570 N   0  0  0  0  0  0  0  0  0  0  0  0
    6.0960    9.9280   30.6430 C   0  0  0  0  0  0  0  0  0  0  0  0
    7.4340    9.8910   30.1750 C   0  0  0  0  0  0  0  0  0  0  0  0
    7.9040    8.8930   29.1160 C   0  0  0  0  0  0  0  0  0  0  0  0
    8.3710   10.8010   30.7090 C   0  0  0  0  0  0  0  0  0  0  0  0
  1  2  1  0  0  0  0
  2  5  2  0  0  0  0
  2  3  1  0  0  0  0
  3  4  2  0  0  0  0
  4  7  1  0  0  0  0
  4  8  1  0  0  0  0
  5  6  1  0  0  0  0
  6 14  1  0  0  0  0
  6  7  2  0  0  0  0
  8  9  1  0  0  0  0
  8 10  1  0  0  0  0
 10 11  1  0  0  0  0
 11 12  1  0  0  0  0
 12 13  1  0  0  0  0
 14 15  1  0  0  0  0
 15 16  1  0  0  0  0
 16 23  2  0  0  0  0
 16 17  1  0  0  0  0
 17 18  2  0  0  0  0
 18 20  1  0  0  0  0
 18 19  1  0  0  0  0
 20 21  2  0  0  0  0
 21 22  1  0  0  0  0
 21 23  1  0  0  0  0
M  END
>  <COMPND>
    UNNAMED

>  <AUTHOR>
    GENERATED BY OPEN BABEL 2.4.90

>  <MASTER>
        0    0    0    0    0    0    0    0   23    0   23    0

