__4jsk_A_rec_4cwx_hw0_lig_min.pdb
 OpenBabel10201906133D

 27 29  0  0  1  0  0  0  0  0999 V2000
   13.3830   16.5320   37.3380 C   0  0  1  0  0  0  0  0  0  0  0  0
   12.7190   17.6790   38.0890 C   0  0  0  0  0  0  0  0  0  0  0  0
   12.3720   17.0260   39.3360 N   0  0  0  0  0  0  0  0  0  0  0  0
   13.1640   15.8460   39.6280 C   0  0  0  0  0  0  0  0  0  0  0  0
   14.1200   15.7670   38.4440 C   0  0  1  0  0  0  0  0  0  0  0  0
   12.3640   15.6980   36.7500 O   0  0  0  0  0  0  0  0  0  0  0  0
   12.2040   15.8760   35.3370 C   0  0  0  0  0  0  0  0  0  0  0  0
   11.5520   14.6140   34.7850 C   0  0  0  0  0  0  0  0  0  0  0  0
   10.7890   14.8530   33.4830 C   0  0  0  0  0  0  0  0  0  0  0  0
    9.6720   13.8160   33.3300 C   0  0  0  0  0  0  0  0  0  0  0  0
    8.9850   14.0510   31.9990 C   0  0  0  0  0  0  0  0  0  0  0  0
    4.9070   11.6160   32.0140 N   0  0  0  0  0  0  0  0  0  0  0  0
    6.1250   11.7480   31.4100 C   0  0  0  0  0  0  0  0  0  0  0  0
    6.5240   10.9650   30.3120 C   0  0  0  0  0  0  0  0  0  0  0  0
    7.7980   11.1540   29.7400 C   0  0  0  0  0  0  0  0  0  0  0  0
    8.6330   12.1460   30.2770 C   0  0  0  0  0  0  0  0  0  0  0  0
    6.9600   12.6680   31.9100 N   0  0  0  0  0  0  0  0  0  0  0  0
    8.1860   12.9090   31.3770 C   0  0  0  0  0  0  0  0  0  0  0  0
   14.5510   14.3230   38.1650 C   0  0  0  0  0  0  0  0  0  0  0  0
   15.6960   14.3410   37.1750 C   0  0  0  0  0  0  0  0  0  0  0  0
   15.4060   14.0760   35.8770 N   0  0  0  0  0  0  0  0  0  0  0  0
   16.3480   14.0750   34.8980 C   0  0  0  0  0  0  0  0  0  0  0  0
   15.9700   13.7910   33.6170 N   0  0  0  0  0  0  0  0  0  0  0  0
   17.6750   14.3670   35.2280 C   0  0  0  0  0  0  0  0  0  0  0  0
   18.0160   14.6480   36.5570 C   0  0  0  0  0  0  0  0  0  0  0  0
   17.0160   14.6390   37.5520 C   0  0  0  0  0  0  0  0  0  0  0  0
   19.4610   14.9530   36.9000 C   0  0  0  0  0  0  0  0  0  0  0  0
  1  6  1  1  0  0  0
  1  2  1  0  0  0  0
  1  5  1  0  0  0  0
  2  3  1  0  0  0  0
  3  4  1  0  0  0  0
  4  5  1  0  0  0  0
  5 19  1  6  0  0  0
  6  7  1  0  0  0  0
  7  8  1  0  0  0  0
  8  9  1  0  0  0  0
  9 10  1  0  0  0  0
 10 11  1  0  0  0  0
 11 18  1  0  0  0  0
 12 13  1  0  0  0  0
 13 14  2  0  0  0  0
 13 17  1  0  0  0  0
 14 15  1  0  0  0  0
 15 16  2  0  0  0  0
 16 18  1  0  0  0  0
 17 18  2  0  0  0  0
 19 20  1  0  0  0  0
 20 21  2  0  0  0  0
 20 26  1  0  0  0  0
 21 22  1  0  0  0  0
 22 23  1  0  0  0  0
 22 24  2  0  0  0  0
 24 25  1  0  0  0  0
 25 27  1  0  0  0  0
 25 26  2  0  0  0  0
M  END
>  <COMPND>
    UNNAMED

>  <AUTHOR>
    GENERATED BY OPEN BABEL 2.4.90

>  <MASTER>
        0    0    0    0    0    0    0    0   27    0   27    0

