__4jsl_A_rec_5fvz_w67_lig_min.pdb
 OpenBabel10201903173D

 22 23  0  0  0  0  0  0  0  0999 V2000
    9.4340   14.3540   32.5180 C   0  0  0  0  0  0  0  0  0  0  0  0
    9.5680   16.6790   35.4420 N   0  0  0  0  0  0  0  0  0  0  0  0
    9.1200   15.9890   34.3910 C   0  0  0  0  0  0  0  0  0  0  0  0
    9.9650   15.1140   33.7030 C   0  0  0  0  0  0  0  0  0  0  0  0
   11.2830   14.9390   34.1110 C   0  0  0  0  0  0  0  0  0  0  0  0
   11.7250   15.6760   35.2070 C   0  0  0  0  0  0  0  0  0  0  0  0
   10.8380   16.5330   35.8550 C   0  0  0  0  0  0  0  0  0  0  0  0
   13.1420   15.5300   35.7130 C   0  0  0  0  0  0  0  0  0  0  0  0
   13.2060   14.3540   36.6890 C   0  0  0  0  0  0  0  0  0  0  0  0
   14.4470   14.4360   37.5660 C   0  0  0  0  0  0  0  0  0  0  0  0
   16.3830   13.5800   36.4590 C   0  0  0  0  0  0  0  0  0  0  0  0
   15.3010   13.2520   37.3950 N   0  0  0  0  0  0  0  0  0  0  0  0
   15.9100   12.8830   38.6760 C   0  0  0  0  0  0  0  0  0  0  0  0
    9.5140   12.8610   32.8210 C   0  0  0  0  0  0  0  0  0  0  0  0
    7.1460   12.5350   32.1890 N   0  0  0  0  0  0  0  0  0  0  0  0
    6.1600   11.9890   31.4590 C   0  0  0  0  0  0  0  0  0  0  0  0
    4.8820   12.3580   31.7260 N   0  0  0  0  0  0  0  0  0  0  0  0
    6.4560   11.0480   30.4630 C   0  0  0  0  0  0  0  0  0  0  0  0
    7.7890   10.7030   30.2240 C   0  0  0  0  0  0  0  0  0  0  0  0
    8.7950   11.2890   30.9910 C   0  0  0  0  0  0  0  0  0  0  0  0
    8.4440   12.2030   31.9770 C   0  0  0  0  0  0  0  0  0  0  0  0
    8.1500    9.7030   29.1600 C   0  0  0  0  0  0  0  0  0  0  0  0
  1 14  1  0  0  0  0
  1  4  1  0  0  0  0
  2  3  2  0  0  0  0
  2  7  1  0  0  0  0
  3  4  1  0  0  0  0
  4  5  2  0  0  0  0
  5  6  1  0  0  0  0
  6  8  1  0  0  0  0
  6  7  2  0  0  0  0
  8  9  1  0  0  0  0
  9 10  1  0  0  0  0
 10 12  1  0  0  0  0
 11 12  1  0  0  0  0
 12 13  1  0  0  0  0
 14 21  1  0  0  0  0
 15 16  2  0  0  0  0
 15 21  1  0  0  0  0
 16 18  1  0  0  0  0
 16 17  1  0  0  0  0
 18 19  2  0  0  0  0
 19 22  1  0  0  0  0
 19 20  1  0  0  0  0
 20 21  2  0  0  0  0
M  END
>  <COMPND>
    UNNAMED

>  <AUTHOR>
    GENERATED BY OPEN BABEL 2.4.90

>  <MASTER>
        0    0    0    0    0    0    0    0   22    0   22    0

