__4jsm_A_rec_5fvz_w67_lig_min.pdb
 OpenBabel10201907113D

 22 23  0  0  0  0  0  0  0  0999 V2000
    9.1380   14.5380   32.4210 C   0  0  0  0  0  0  0  0  0  0  0  0
    8.6670   17.0700   35.1290 N   0  0  0  0  0  0  0  0  0  0  0  0
    8.4260   16.2590   34.0970 C   0  0  0  0  0  0  0  0  0  0  0  0
    9.4360   15.4380   33.5890 C   0  0  0  0  0  0  0  0  0  0  0  0
   10.7040   15.4450   34.1580 C   0  0  0  0  0  0  0  0  0  0  0  0
   10.9300   16.3050   35.2290 C   0  0  0  0  0  0  0  0  0  0  0  0
    9.8850   17.1010   35.6950 C   0  0  0  0  0  0  0  0  0  0  0  0
   12.2810   16.3590   35.9040 C   0  0  0  0  0  0  0  0  0  0  0  0
   12.5930   14.9900   36.5100 C   0  0  0  0  0  0  0  0  0  0  0  0
   13.5910   15.1090   37.6530 C   0  0  0  0  0  0  0  0  0  0  0  0
   15.5260   14.4900   36.3970 C   0  0  0  0  0  0  0  0  0  0  0  0
   14.6680   14.1170   37.5260 N   0  0  0  0  0  0  0  0  0  0  0  0
   15.4930   14.1150   38.7370 C   0  0  0  0  0  0  0  0  0  0  0  0
    9.1690   13.0900   32.9000 C   0  0  0  0  0  0  0  0  0  0  0  0
    6.8870   12.4420   32.2010 N   0  0  0  0  0  0  0  0  0  0  0  0
    6.0070   11.7950   31.4200 C   0  0  0  0  0  0  0  0  0  0  0  0
    4.6840   11.9460   31.6810 N   0  0  0  0  0  0  0  0  0  0  0  0
    6.4570   10.9730   30.3780 C   0  0  0  0  0  0  0  0  0  0  0  0
    7.8300   10.8530   30.1470 C   0  0  0  0  0  0  0  0  0  0  0  0
    8.7240   11.5400   30.9680 C   0  0  0  0  0  0  0  0  0  0  0  0
    8.2240   12.3270   31.9980 C   0  0  0  0  0  0  0  0  0  0  0  0
    8.3550    9.9880   29.0340 C   0  0  0  0  0  0  0  0  0  0  0  0
  1 14  1  0  0  0  0
  1  4  1  0  0  0  0
  2  3  2  0  0  0  0
  2  7  1  0  0  0  0
  3  4  1  0  0  0  0
  4  5  2  0  0  0  0
  5  6  1  0  0  0  0
  6  8  1  0  0  0  0
  6  7  2  0  0  0  0
  8  9  1  0  0  0  0
  9 10  1  0  0  0  0
 10 12  1  0  0  0  0
 11 12  1  0  0  0  0
 12 13  1  0  0  0  0
 14 21  1  0  0  0  0
 15 16  2  0  0  0  0
 15 21  1  0  0  0  0
 16 18  1  0  0  0  0
 16 17  1  0  0  0  0
 18 19  2  0  0  0  0
 19 22  1  0  0  0  0
 19 20  1  0  0  0  0
 20 21  2  0  0  0  0
M  END
>  <COMPND>
    UNNAMED

>  <AUTHOR>
    GENERATED BY OPEN BABEL 2.4.90

>  <MASTER>
        0    0    0    0    0    0    0    0   22    0   22    0

