__4k5h_A_rec_4cwy_hw1_lig_min.pdb
 OpenBabel10201901413D

 28 30  0  0  1  0  0  0  0  0999 V2000
   14.5180   15.5810   38.9300 C   0  0  2  0  0  0  0  0  0  0  0  0
   13.6910   15.6230   40.2150 C   0  0  0  0  0  0  0  0  0  0  0  0
   12.6410   16.5830   39.9150 N   0  0  0  0  0  0  0  0  0  0  0  0
   12.7680   17.2040   38.6060 C   0  0  0  0  0  0  0  0  0  0  0  0
   13.5660   16.1330   37.8710 C   0  0  2  0  0  0  0  0  0  0  0  0
   15.1230   14.1960   38.6700 C   0  0  0  0  0  0  0  0  0  0  0  0
   16.1060   14.1510   33.9710 N   0  0  0  0  0  0  0  0  0  0  0  0
   16.6010   14.3120   35.2290 C   0  0  0  0  0  0  0  0  0  0  0  0
   17.9500   14.5920   35.4530 C   0  0  0  0  0  0  0  0  0  0  0  0
   18.4160   14.7450   36.7650 C   0  0  0  0  0  0  0  0  0  0  0  0
   19.8820   15.0430   36.9940 C   0  0  0  0  0  0  0  0  0  0  0  0
   17.5180   14.6200   37.8490 C   0  0  0  0  0  0  0  0  0  0  0  0
   15.7590   14.1920   36.2900 N   0  0  0  0  0  0  0  0  0  0  0  0
   16.1680   14.3330   37.5780 C   0  0  0  0  0  0  0  0  0  0  0  0
   12.6850   15.0700   37.4580 O   0  0  0  0  0  0  0  0  0  0  0  0
   11.7270   15.4040   36.4470 C   0  0  0  0  0  0  0  0  0  0  0  0
   11.7430   14.2450   35.4590 C   0  0  0  0  0  0  0  0  0  0  0  0
   11.0070   14.5310   34.1580 C   0  0  0  0  0  0  0  0  0  0  0  0
   10.1090   13.3530   33.7590 C   0  0  0  0  0  0  0  0  0  0  0  0
    9.0210   13.9050   32.8560 C   0  0  0  0  0  0  0  0  0  0  0  0
    8.2290   12.9300   31.9840 C   0  0  0  0  0  0  0  0  0  0  0  0
    6.9020   12.7830   32.2210 N   0  0  0  0  0  0  0  0  0  0  0  0
    6.1300   12.0040   31.4540 C   0  0  0  0  0  0  0  0  0  0  0  0
    4.8240   11.9600   31.7800 N   0  0  0  0  0  0  0  0  0  0  0  0
    6.6680   11.2680   30.3760 C   0  0  0  0  0  0  0  0  0  0  0  0
    8.0440   11.3830   30.1240 C   0  0  0  0  0  0  0  0  0  0  0  0
    8.8140   12.2160   30.9310 C   0  0  0  0  0  0  0  0  0  0  0  0
    8.7290   10.6350   28.9970 C   0  0  0  0  0  0  0  0  0  0  0  0
  1  5  1  0  0  0  0
  1  6  1  6  0  0  0
  1  2  1  0  0  0  0
  2  3  1  0  0  0  0
  3  4  1  0  0  0  0
  4  5  1  0  0  0  0
  5 15  1  1  0  0  0
  6 14  1  0  0  0  0
  7  8  1  0  0  0  0
  8  9  2  0  0  0  0
  8 13  1  0  0  0  0
  9 10  1  0  0  0  0
 10 11  1  0  0  0  0
 10 12  2  0  0  0  0
 12 14  1  0  0  0  0
 13 14  2  0  0  0  0
 15 16  1  0  0  0  0
 16 17  1  0  0  0  0
 17 18  1  0  0  0  0
 18 19  1  0  0  0  0
 19 20  1  0  0  0  0
 20 21  1  0  0  0  0
 21 27  2  0  0  0  0
 21 22  1  0  0  0  0
 22 23  2  0  0  0  0
 23 25  1  0  0  0  0
 23 24  1  0  0  0  0
 25 26  2  0  0  0  0
 26 28  1  0  0  0  0
 26 27  1  0  0  0  0
M  END
>  <COMPND>
    UNNAMED

>  <AUTHOR>
    GENERATED BY OPEN BABEL 2.4.90

>  <MASTER>
        0    0    0    0    0    0    0    0   28    0   28    0

