__4kcr_A_rec_1dmk_itu_lig_min.pdb
 OpenBabel10201907483D

  6  5  0  0  0  0  0  0  0  0999 V2000
    6.3430   12.0590   31.4820 C   0  0  0  0  0  0  0  0  0  0  0  0
    7.2750   12.0810   32.4250 N   0  0  0  0  0  0  0  0  0  0  0  0
    5.2520   12.8070   31.6220 N   0  0  0  0  0  0  0  0  0  0  0  0
    6.4970   10.9260   30.0610 S   0  0  0  0  0  0  0  0  0  0  0  0
    8.9590   11.6650   28.9850 C   0  0  0  0  0  0  0  0  0  0  0  0
    8.2670   10.5580   29.7510 C   0  0  0  0  0  0  0  0  0  0  0  0
  1  4  1  0  0  0  0
  1  3  2  0  0  0  0
  1  2  1  0  0  0  0
  4  6  1  0  0  0  0
  5  6  1  0  0  0  0
M  END
>  <COMPND>
    UNNAMED

>  <AUTHOR>
    GENERATED BY OPEN BABEL 2.4.90

>  <MASTER>
        0    0    0    0    0    0    0    0    6    0    6    0

