__4kcs_A_rec_5adn_2sn_lig_min.pdb
 OpenBabel10201908093D

 23 25  0  0  0  0  0  0  0  0999 V2000
   11.4690   13.0040   35.2540 C   0  0  0  0  0  0  0  0  0  0  0  0
    8.5620   12.1920   32.9360 C   0  0  0  0  0  0  0  0  0  0  0  0
    9.3490   12.8090   33.9100 C   0  0  0  0  0  0  0  0  0  0  0  0
   10.6320   12.3460   34.1890 C   0  0  0  0  0  0  0  0  0  0  0  0
   11.1480   11.2660   33.4910 C   0  0  0  0  0  0  0  0  0  0  0  0
   10.3730   10.6650   32.5110 C   0  0  0  0  0  0  0  0  0  0  0  0
    9.0880   11.1190   32.2400 C   0  0  0  0  0  0  0  0  0  0  0  0
    8.3310   10.4730   31.2810 C   0  0  0  0  0  0  0  0  0  0  0  0
    7.0690   10.9520   31.0080 C   0  0  0  0  0  0  0  0  0  0  0  0
    6.5620   12.0250   31.7240 C   0  0  0  0  0  0  0  0  0  0  0  0
    5.3110   12.4510   31.4470 N   0  0  0  0  0  0  0  0  0  0  0  0
    7.3030   12.6260   32.6790 N   0  0  0  0  0  0  0  0  0  0  0  0
   10.9830   14.3400   35.4810 N   0  0  0  0  0  0  0  0  0  0  0  0
   12.8710   15.0370   34.2730 C   0  0  0  0  0  0  0  0  0  0  0  0
   13.6970   16.0520   33.8140 C   0  0  0  0  0  0  0  0  0  0  0  0
   13.4000   17.3810   34.0970 C   0  0  0  0  0  0  0  0  0  0  0  0
   12.2890   17.6890   34.8690 C   0  0  0  0  0  0  0  0  0  0  0  0
   11.4720   16.6650   35.3340 C   0  0  0  0  0  0  0  0  0  0  0  0
   11.7620   15.3420   35.0400 C   0  0  0  0  0  0  0  0  0  0  0  0
   14.8960   15.7130   32.9680 C   0  0  0  0  0  0  0  0  0  0  0  0
   16.4270   15.6160   34.8770 C   0  0  0  0  0  0  0  0  0  0  0  0
   15.9890   14.9620   33.6330 N   0  0  0  0  0  0  0  0  0  0  0  0
   15.6350   13.5590   33.9100 C   0  0  0  0  0  0  0  0  0  0  0  0
  1  4  1  0  0  0  0
  1 13  1  0  0  0  0
  2  7  1  0  0  0  0
  2 12  1  0  0  0  0
  2  3  2  0  0  0  0
  3  4  1  0  0  0  0
  4  5  2  0  0  0  0
  5  6  1  0  0  0  0
  6  7  2  0  0  0  0
  7  8  1  0  0  0  0
  8  9  2  0  0  0  0
  9 10  1  0  0  0  0
 10 11  1  0  0  0  0
 10 12  2  0  0  0  0
 13 19  1  0  0  0  0
 14 15  2  0  0  0  0
 14 19  1  0  0  0  0
 15 20  1  0  0  0  0
 15 16  1  0  0  0  0
 16 17  2  0  0  0  0
 17 18  1  0  0  0  0
 18 19  2  0  0  0  0
 20 22  1  0  0  0  0
 21 22  1  0  0  0  0
 22 23  1  0  0  0  0
M  END
>  <COMPND>
    UNNAMED

>  <AUTHOR>
    GENERATED BY OPEN BABEL 2.4.90

>  <MASTER>
        0    0    0    0    0    0    0    0   23    0   23    0

