__4uh7_A_rec_4uh7_4v4_lig_min.pdb
 OpenBabel10201903003D

 22 23  0  0  0  0  0  0  0  0999 V2000
   10.6820   12.8340   33.8710 C   0  0  0  0  0  0  0  0  0  0  0  0
   10.8040   11.4960   33.4910 C   0  0  0  0  0  0  0  0  0  0  0  0
   12.0670   10.9150   33.4360 C   0  0  0  0  0  0  0  0  0  0  0  0
   13.1970   11.6690   33.7550 C   0  0  0  0  0  0  0  0  0  0  0  0
   13.0790   13.0040   34.1310 C   0  0  0  0  0  0  0  0  0  0  0  0
   11.8110   13.5900   34.1900 C   0  0  0  0  0  0  0  0  0  0  0  0
   15.5040   13.4300   33.8270 C   0  0  0  0  0  0  0  0  0  0  0  0
   14.2330   13.7280   34.4700 N   0  0  0  0  0  0  0  0  0  0  0  0
   14.1770   14.7550   35.5030 C   0  0  0  0  0  0  0  0  0  0  0  0
   15.3680   14.4610   36.4120 C   0  0  0  0  0  0  0  0  0  0  0  0
   15.0130   13.7490   37.6260 N   0  0  0  0  0  0  0  0  0  0  0  0
   15.3580   14.3150   38.9170 C   0  0  0  0  0  0  0  0  0  0  0  0
    9.3080   13.4490   33.9220 C   0  0  0  0  0  0  0  0  0  0  0  0
    8.9440   13.9750   32.5370 C   0  0  0  0  0  0  0  0  0  0  0  0
    6.7980   12.8340   32.0490 N   0  0  0  0  0  0  0  0  0  0  0  0
    5.9920   12.0070   31.3670 C   0  0  0  0  0  0  0  0  0  0  0  0
    4.6960   11.9660   31.7580 N   0  0  0  0  0  0  0  0  0  0  0  0
    6.4940   11.2330   30.3040 C   0  0  0  0  0  0  0  0  0  0  0  0
    7.8490   11.3590   29.9710 C   0  0  0  0  0  0  0  0  0  0  0  0
    8.6520   12.2390   30.6970 C   0  0  0  0  0  0  0  0  0  0  0  0
    8.1020   12.9820   31.7430 C   0  0  0  0  0  0  0  0  0  0  0  0
    8.4790   10.5620   28.8550 C   0  0  0  0  0  0  0  0  0  0  0  0
  1  2  2  0  0  0  0
  1 13  1  0  0  0  0
  1  6  1  0  0  0  0
  2  3  1  0  0  0  0
  3  4  2  0  0  0  0
  4  5  1  0  0  0  0
  5  6  2  0  0  0  0
  5  8  1  0  0  0  0
  7  8  1  0  0  0  0
  8  9  1  0  0  0  0
  9 10  1  0  0  0  0
 10 11  1  0  0  0  0
 11 12  1  0  0  0  0
 13 14  1  0  0  0  0
 14 21  1  0  0  0  0
 15 16  2  0  0  0  0
 15 21  1  0  0  0  0
 16 18  1  0  0  0  0
 16 17  1  0  0  0  0
 18 19  2  0  0  0  0
 19 22  1  0  0  0  0
 19 20  1  0  0  0  0
 20 21  2  0  0  0  0
M  END
>  <COMPND>
    UNNAMED

>  <AUTHOR>
    GENERATED BY OPEN BABEL 2.4.90

>  <MASTER>
        0    0    0    0    0    0    0    0   22    0   22    0

