__4upt_A_rec_3n5p_xfm_lig_min.pdb
 OpenBabel10201903353D

 26 28  0  0  0  0  0  0  0  0999 V2000
   10.6300   13.5770   33.9790 C   0  0  0  0  0  0  0  0  0  0  0  0
   11.7640   14.3240   33.9580 N   0  0  0  0  0  0  0  0  0  0  0  0
   12.9870   13.7470   33.9880 C   0  0  0  0  0  0  0  0  0  0  0  0
   13.1040   12.3520   34.0330 C   0  0  0  0  0  0  0  0  0  0  0  0
   11.9510   11.5580   34.0550 C   0  0  0  0  0  0  0  0  0  0  0  0
   10.7020   12.1740   34.0300 C   0  0  0  0  0  0  0  0  0  0  0  0
    9.3010   14.2920   33.9520 C   0  0  0  0  0  0  0  0  0  0  0  0
    9.0690   14.7910   32.5430 C   0  0  0  0  0  0  0  0  0  0  0  0
    7.0510   13.4220   32.1510 N   0  0  0  0  0  0  0  0  0  0  0  0
    8.3110   13.7330   31.7740 C   0  0  0  0  0  0  0  0  0  0  0  0
    8.8980   13.0890   30.6830 C   0  0  0  0  0  0  0  0  0  0  0  0
    8.1750   12.1200   29.9780 C   0  0  0  0  0  0  0  0  0  0  0  0
    6.8770   11.8140   30.3840 C   0  0  0  0  0  0  0  0  0  0  0  0
    6.3430   12.4840   31.4780 C   0  0  0  0  0  0  0  0  0  0  0  0
    8.7950   11.4030   28.8000 C   0  0  0  0  0  0  0  0  0  0  0  0
    5.1010   12.2100   31.8780 N   0  0  0  0  0  0  0  0  0  0  0  0
   14.1880   14.6570   33.9520 C   0  0  0  0  0  0  0  0  0  0  0  0
   15.4880   13.8700   33.9210 C   0  0  0  0  0  0  0  0  0  0  0  0
   16.3270   14.2380   35.1140 C   0  0  0  0  0  0  0  0  0  0  0  0
   17.6770   14.5080   34.9190 C   0  0  0  0  0  0  0  0  0  0  0  0
   18.4710   14.8310   36.0170 C   0  0  0  0  0  0  0  0  0  0  0  0
   17.9200   14.8920   37.2630 N   0  0  0  0  0  0  0  0  0  0  0  0
   16.5880   14.6340   37.4820 C   0  0  0  0  0  0  0  0  0  0  0  0
   15.7700   14.2950   36.4000 C   0  0  0  0  0  0  0  0  0  0  0  0
   16.0470   14.7100   38.7360 N   0  0  0  0  0  0  0  0  0  0  0  0
   19.9380   15.1160   35.7930 C   0  0  0  0  0  0  0  0  0  0  0  0
  1  6  2  0  0  0  0
  1  7  1  0  0  0  0
  1  2  1  0  0  0  0
  2  3  2  0  0  0  0
  3  4  1  0  0  0  0
  3 17  1  0  0  0  0
  4  5  2  0  0  0  0
  5  6  1  0  0  0  0
  7  8  1  0  0  0  0
  8 10  1  0  0  0  0
  9 14  2  0  0  0  0
  9 10  1  0  0  0  0
 10 11  2  0  0  0  0
 11 12  1  0  0  0  0
 12 15  1  0  0  0  0
 12 13  2  0  0  0  0
 13 14  1  0  0  0  0
 14 16  1  0  0  0  0
 17 18  1  0  0  0  0
 18 19  1  0  0  0  0
 19 20  2  0  0  0  0
 19 24  1  0  0  0  0
 20 21  1  0  0  0  0
 21 26  1  0  0  0  0
 21 22  2  0  0  0  0
 22 23  1  0  0  0  0
 23 24  2  0  0  0  0
 23 25  1  0  0  0  0
M  END
>  <COMPND>
    UNNAMED

>  <AUTHOR>
    GENERATED BY OPEN BABEL 2.4.90

>  <MASTER>
        0    0    0    0    0    0    0    0   26    0   26    0

