__4upt_A_rec_4uh9_s85_lig_min.pdb
 OpenBabel10201905443D

 23 24  0  0  0  0  0  0  0  0999 V2000
   11.5020   10.2960   33.7070 F   0  0  0  0  0  0  0  0  0  0  0  0
   11.6300   11.6370   33.9370 C   0  0  0  0  0  0  0  0  0  0  0  0
   12.8700   12.2520   34.2270 C   0  0  0  0  0  0  0  0  0  0  0  0
   12.9980   13.6390   34.4190 C   0  0  0  0  0  0  0  0  0  0  0  0
   10.4920   12.4350   33.8300 C   0  0  0  0  0  0  0  0  0  0  0  0
   10.5990   13.8110   34.0270 C   0  0  0  0  0  0  0  0  0  0  0  0
   11.8270   14.4350   34.3270 C   0  0  0  0  0  0  0  0  0  0  0  0
   14.2960   14.1440   34.7440 N   0  0  0  0  0  0  0  0  0  0  0  0
   15.4750   13.6760   33.9720 C   0  0  0  0  0  0  0  0  0  0  0  0
   14.4830   15.0870   35.8780 C   0  0  0  0  0  0  0  0  0  0  0  0
   14.0530   14.4280   37.2030 C   0  0  0  0  0  0  0  0  0  0  0  0
   15.1970   13.7160   37.8310 N   0  0  0  0  0  0  0  0  0  0  0  0
   16.4180   14.5470   37.9020 C   0  0  0  0  0  0  0  0  0  0  0  0
    9.2900   14.5150   33.8860 C   0  0  0  0  0  0  0  0  0  0  0  0
    8.9840   14.7630   32.4280 C   0  0  0  0  0  0  0  0  0  0  0  0
    8.2720   13.6180   31.6820 C   0  0  0  0  0  0  0  0  0  0  0  0
    7.0000   13.2870   32.0590 N   0  0  0  0  0  0  0  0  0  0  0  0
    6.2850   12.3600   31.4280 C   0  0  0  0  0  0  0  0  0  0  0  0
    5.0430   12.1680   31.9040 N   0  0  0  0  0  0  0  0  0  0  0  0
    6.8140   11.6800   30.2870 C   0  0  0  0  0  0  0  0  0  0  0  0
    8.1310   11.9900   29.8640 C   0  0  0  0  0  0  0  0  0  0  0  0
    8.7950   11.2980   28.6730 C   0  0  0  0  0  0  0  0  0  0  0  0
    8.8640   12.9690   30.5700 C   0  0  0  0  0  0  0  0  0  0  0  0
  1  2  1  0  0  0  0
  2  5  2  0  0  0  0
  2  3  1  0  0  0  0
  3  4  2  0  0  0  0
  4  7  1  0  0  0  0
  4  8  1  0  0  0  0
  5  6  1  0  0  0  0
  6 14  1  0  0  0  0
  6  7  2  0  0  0  0
  8  9  1  0  0  0  0
  8 10  1  0  0  0  0
 10 11  1  0  0  0  0
 11 12  1  0  0  0  0
 12 13  1  0  0  0  0
 14 15  1  0  0  0  0
 15 16  1  0  0  0  0
 16 23  2  0  0  0  0
 16 17  1  0  0  0  0
 17 18  2  0  0  0  0
 18 20  1  0  0  0  0
 18 19  1  0  0  0  0
 20 21  2  0  0  0  0
 21 22  1  0  0  0  0
 21 23  1  0  0  0  0
M  END
>  <COMPND>
    UNNAMED

>  <AUTHOR>
    GENERATED BY OPEN BABEL 2.4.90

>  <MASTER>
        0    0    0    0    0    0    0    0   23    0   23    0

