__5fj2_A_rec_5adn_2sn_lig_min.pdb
 OpenBabel10201908103D

 23 25  0  0  0  0  0  0  0  0999 V2000
   11.5470   12.9080   34.7660 C   0  0  0  0  0  0  0  0  0  0  0  0
    8.4950   11.9910   32.6880 C   0  0  0  0  0  0  0  0  0  0  0  0
    9.3280   12.6230   33.6100 C   0  0  0  0  0  0  0  0  0  0  0  0
   10.6570   12.2340   33.7550 C   0  0  0  0  0  0  0  0  0  0  0  0
   11.1720   11.2130   32.9710 C   0  0  0  0  0  0  0  0  0  0  0  0
   10.3470   10.5980   32.0410 C   0  0  0  0  0  0  0  0  0  0  0  0
    9.0180   10.9770   31.9050 C   0  0  0  0  0  0  0  0  0  0  0  0
    8.2170   10.3170   30.9930 C   0  0  0  0  0  0  0  0  0  0  0  0
    6.9080   10.7230   30.8520 C   0  0  0  0  0  0  0  0  0  0  0  0
    6.4060   11.7360   31.6530 C   0  0  0  0  0  0  0  0  0  0  0  0
    5.1100   12.0910   31.5070 N   0  0  0  0  0  0  0  0  0  0  0  0
    7.1930   12.3510   32.5610 N   0  0  0  0  0  0  0  0  0  0  0  0
   10.9720   14.1750   35.1340 N   0  0  0  0  0  0  0  0  0  0  0  0
   12.8960   15.1230   34.1800 C   0  0  0  0  0  0  0  0  0  0  0  0
   13.6090   16.2380   33.7710 C   0  0  0  0  0  0  0  0  0  0  0  0
   13.0550   17.5090   33.8880 C   0  0  0  0  0  0  0  0  0  0  0  0
   11.7940   17.6600   34.4470 C   0  0  0  0  0  0  0  0  0  0  0  0
   11.0890   16.5370   34.8650 C   0  0  0  0  0  0  0  0  0  0  0  0
   11.6390   15.2710   34.7360 C   0  0  0  0  0  0  0  0  0  0  0  0
   14.9730   16.0680   33.1550 C   0  0  0  0  0  0  0  0  0  0  0  0
   16.0270   16.7980   35.2420 C   0  0  0  0  0  0  0  0  0  0  0  0
   16.1080   15.8820   34.0920 N   0  0  0  0  0  0  0  0  0  0  0  0
   16.2340   14.4950   34.5720 C   0  0  0  0  0  0  0  0  0  0  0  0
  1  4  1  0  0  0  0
  1 13  1  0  0  0  0
  2  7  1  0  0  0  0
  2 12  1  0  0  0  0
  2  3  2  0  0  0  0
  3  4  1  0  0  0  0
  4  5  2  0  0  0  0
  5  6  1  0  0  0  0
  6  7  2  0  0  0  0
  7  8  1  0  0  0  0
  8  9  2  0  0  0  0
  9 10  1  0  0  0  0
 10 11  1  0  0  0  0
 10 12  2  0  0  0  0
 13 19  1  0  0  0  0
 14 15  2  0  0  0  0
 14 19  1  0  0  0  0
 15 20  1  0  0  0  0
 15 16  1  0  0  0  0
 16 17  2  0  0  0  0
 17 18  1  0  0  0  0
 18 19  2  0  0  0  0
 20 22  1  0  0  0  0
 21 22  1  0  0  0  0
 22 23  1  0  0  0  0
M  END
>  <COMPND>
    UNNAMED

>  <AUTHOR>
    GENERATED BY OPEN BABEL 2.4.90

>  <MASTER>
        0    0    0    0    0    0    0    0   23    0   23    0

