__5uo8_A_rec_5adn_2sn_lig_min.pdb
 OpenBabel10201903003D

 23 25  0  0  0  0  0  0  0  0999 V2000
   11.7510   12.3990   34.2790 C   0  0  0  0  0  0  0  0  0  0  0  0
    8.4480   11.8430   32.4720 C   0  0  0  0  0  0  0  0  0  0  0  0
    9.4390   12.4000   33.2810 C   0  0  0  0  0  0  0  0  0  0  0  0
   10.6920   11.8030   33.3890 C   0  0  0  0  0  0  0  0  0  0  0  0
   10.9730   10.6460   32.6800 C   0  0  0  0  0  0  0  0  0  0  0  0
    9.9940   10.1030   31.8620 C   0  0  0  0  0  0  0  0  0  0  0  0
    8.7400   10.6920   31.7640 C   0  0  0  0  0  0  0  0  0  0  0  0
    7.7780   10.1020   30.9660 C   0  0  0  0  0  0  0  0  0  0  0  0
    6.5470   10.7140   30.8600 C   0  0  0  0  0  0  0  0  0  0  0  0
    6.2780   11.8640   31.5860 C   0  0  0  0  0  0  0  0  0  0  0  0
    5.0520   12.4210   31.4780 N   0  0  0  0  0  0  0  0  0  0  0  0
    7.2190   12.4090   32.3840 N   0  0  0  0  0  0  0  0  0  0  0  0
   11.2240   13.5740   34.9220 N   0  0  0  0  0  0  0  0  0  0  0  0
   13.1390   14.6870   34.1420 C   0  0  0  0  0  0  0  0  0  0  0  0
   13.8200   15.8650   33.8790 C   0  0  0  0  0  0  0  0  0  0  0  0
   13.2140   17.0950   34.1140 C   0  0  0  0  0  0  0  0  0  0  0  0
   11.9320   17.1400   34.6430 C   0  0  0  0  0  0  0  0  0  0  0  0
   11.2590   15.9540   34.9130 C   0  0  0  0  0  0  0  0  0  0  0  0
   11.8600   14.7300   34.6670 C   0  0  0  0  0  0  0  0  0  0  0  0
   15.2070   15.8100   33.2950 C   0  0  0  0  0  0  0  0  0  0  0  0
   16.0810   16.3310   35.5240 C   0  0  0  0  0  0  0  0  0  0  0  0
   16.3260   15.6290   34.2530 N   0  0  0  0  0  0  0  0  0  0  0  0
   16.6270   14.2120   34.5210 C   0  0  0  0  0  0  0  0  0  0  0  0
  1  4  1  0  0  0  0
  1 13  1  0  0  0  0
  2  7  1  0  0  0  0
  2 12  1  0  0  0  0
  2  3  2  0  0  0  0
  3  4  1  0  0  0  0
  4  5  2  0  0  0  0
  5  6  1  0  0  0  0
  6  7  2  0  0  0  0
  7  8  1  0  0  0  0
  8  9  2  0  0  0  0
  9 10  1  0  0  0  0
 10 11  1  0  0  0  0
 10 12  2  0  0  0  0
 13 19  1  0  0  0  0
 14 15  2  0  0  0  0
 14 19  1  0  0  0  0
 15 20  1  0  0  0  0
 15 16  1  0  0  0  0
 16 17  2  0  0  0  0
 17 18  1  0  0  0  0
 18 19  2  0  0  0  0
 20 22  1  0  0  0  0
 21 22  1  0  0  0  0
 22 23  1  0  0  0  0
M  END
>  <COMPND>
    UNNAMED

>  <AUTHOR>
    GENERATED BY OPEN BABEL 2.4.90

>  <MASTER>
        0    0    0    0    0    0    0    0   23    0   23    0

