__5uo9_A_rec_5fvz_w67_lig_min.pdb
 OpenBabel10191923533D

 22 23  0  0  0  0  0  0  0  0999 V2000
    9.3750   14.6180   33.0850 C   0  0  0  0  0  0  0  0  0  0  0  0
    9.8420   16.6510   36.1860 N   0  0  0  0  0  0  0  0  0  0  0  0
    9.2680   16.0020   35.1720 C   0  0  0  0  0  0  0  0  0  0  0  0
   10.0490   15.3370   34.2220 C   0  0  0  0  0  0  0  0  0  0  0  0
   11.4350   15.3320   34.3270 C   0  0  0  0  0  0  0  0  0  0  0  0
   12.0070   16.0230   35.3920 C   0  0  0  0  0  0  0  0  0  0  0  0
   11.1790   16.6660   36.3090 C   0  0  0  0  0  0  0  0  0  0  0  0
   13.5070   16.0530   35.5750 C   0  0  0  0  0  0  0  0  0  0  0  0
   14.0480   14.6240   35.5100 C   0  0  0  0  0  0  0  0  0  0  0  0
   14.1850   14.0240   36.9020 C   0  0  0  0  0  0  0  0  0  0  0  0
   16.4760   13.8730   36.2410 C   0  0  0  0  0  0  0  0  0  0  0  0
   15.4140   13.2270   37.0200 N   0  0  0  0  0  0  0  0  0  0  0  0
   15.8480   13.1790   38.4190 C   0  0  0  0  0  0  0  0  0  0  0  0
    9.1910   13.1550   33.4740 C   0  0  0  0  0  0  0  0  0  0  0  0
    7.0750   12.2690   32.5510 N   0  0  0  0  0  0  0  0  0  0  0  0
    6.3220   11.7170   31.5860 C   0  0  0  0  0  0  0  0  0  0  0  0
    5.0110   11.4860   31.8480 N   0  0  0  0  0  0  0  0  0  0  0  0
    6.8920   11.3760   30.3520 C   0  0  0  0  0  0  0  0  0  0  0  0
    8.2470   11.6370   30.1310 C   0  0  0  0  0  0  0  0  0  0  0  0
    9.0070   12.2160   31.1460 C   0  0  0  0  0  0  0  0  0  0  0  0
    8.3950   12.5180   32.3560 C   0  0  0  0  0  0  0  0  0  0  0  0
    8.8960   11.2930   28.8170 C   0  0  0  0  0  0  0  0  0  0  0  0
  1 14  1  0  0  0  0
  1  4  1  0  0  0  0
  2  3  2  0  0  0  0
  2  7  1  0  0  0  0
  3  4  1  0  0  0  0
  4  5  2  0  0  0  0
  5  6  1  0  0  0  0
  6  8  1  0  0  0  0
  6  7  2  0  0  0  0
  8  9  1  0  0  0  0
  9 10  1  0  0  0  0
 10 12  1  0  0  0  0
 11 12  1  0  0  0  0
 12 13  1  0  0  0  0
 14 21  1  0  0  0  0
 15 16  2  0  0  0  0
 15 21  1  0  0  0  0
 16 18  1  0  0  0  0
 16 17  1  0  0  0  0
 18 19  2  0  0  0  0
 19 22  1  0  0  0  0
 19 20  1  0  0  0  0
 20 21  2  0  0  0  0
M  END
>  <COMPND>
    UNNAMED

>  <AUTHOR>
    GENERATED BY OPEN BABEL 2.4.90

>  <MASTER>
        0    0    0    0    0    0    0    0   22    0   22    0

