__5uoa_A_rec_1dmk_itu_lig_docked.pdb
 OpenBabel10201913443D

  6  5  0  0  0  0  0  0  0  0999 V2000
    5.7740   11.5020   32.0190 C   0  0  0  0  0  0  0  0  0  0  0  0
    4.8700   12.4240   31.7190 N   0  0  0  0  0  0  0  0  0  0  0  0
    6.2650   11.4440   33.2540 N   0  0  0  0  0  0  0  0  0  0  0  0
    6.4320   10.3990   30.7240 S   0  0  0  0  0  0  0  0  0  0  0  0
    8.6100   12.1240   30.5160 C   0  0  0  0  0  0  0  0  0  0  0  0
    7.6390   11.3120   29.6870 C   0  0  0  0  0  0  0  0  0  0  0  0
  1  4  1  0  0  0  0
  1  3  2  0  0  0  0
  1  2  1  0  0  0  0
  4  6  1  0  0  0  0
  5  6  1  0  0  0  0
M  END
>  <MODEL>
      11

>  <COMPND>
    UNNAMED

>  <AUTHOR>
    GENERATED BY OPEN BABEL 2.4.90

>  <MASTER>
        0    0    0    0    0    0    0    0    6    0    6    0

