__5uoa_A_rec_4uh9_s85_lig_min.pdb
 OpenBabel10201906383D

 23 24  0  0  0  0  0  0  0  0999 V2000
   12.7700   10.2050   33.1150 F   0  0  0  0  0  0  0  0  0  0  0  0
   12.5400   11.4530   33.6200 C   0  0  0  0  0  0  0  0  0  0  0  0
   13.5810   12.3370   33.9900 C   0  0  0  0  0  0  0  0  0  0  0  0
   13.3340   13.6360   34.4680 C   0  0  0  0  0  0  0  0  0  0  0  0
   11.2200   11.8880   33.7250 C   0  0  0  0  0  0  0  0  0  0  0  0
   10.9560   13.1700   34.2060 C   0  0  0  0  0  0  0  0  0  0  0  0
   11.9850   14.0560   34.5880 C   0  0  0  0  0  0  0  0  0  0  0  0
   14.4640   14.4260   34.8470 N   0  0  0  0  0  0  0  0  0  0  0  0
   15.7380   14.2840   34.0960 C   0  0  0  0  0  0  0  0  0  0  0  0
   14.3930   15.3440   36.0140 C   0  0  0  0  0  0  0  0  0  0  0  0
   14.0210   14.5650   37.2900 C   0  0  0  0  0  0  0  0  0  0  0  0
   15.0860   13.5880   37.6390 N   0  0  0  0  0  0  0  0  0  0  0  0
   15.6970   13.8570   38.9590 C   0  0  0  0  0  0  0  0  0  0  0  0
    9.4960   13.4730   34.2640 C   0  0  0  0  0  0  0  0  0  0  0  0
    9.0120   13.9740   32.9250 C   0  0  0  0  0  0  0  0  0  0  0  0
    8.2540   12.9540   32.0540 C   0  0  0  0  0  0  0  0  0  0  0  0
    6.9190   12.7690   32.2800 N   0  0  0  0  0  0  0  0  0  0  0  0
    6.1720   11.9610   31.5330 C   0  0  0  0  0  0  0  0  0  0  0  0
    4.8710   11.9070   31.8680 N   0  0  0  0  0  0  0  0  0  0  0  0
    6.7370   11.2620   30.4210 C   0  0  0  0  0  0  0  0  0  0  0  0
    8.1200   11.4220   30.1530 C   0  0  0  0  0  0  0  0  0  0  0  0
    8.8220   10.6970   29.0050 C   0  0  0  0  0  0  0  0  0  0  0  0
    8.8820   12.2770   30.9780 C   0  0  0  0  0  0  0  0  0  0  0  0
  1  2  1  0  0  0  0
  2  5  2  0  0  0  0
  2  3  1  0  0  0  0
  3  4  2  0  0  0  0
  4  7  1  0  0  0  0
  4  8  1  0  0  0  0
  5  6  1  0  0  0  0
  6 14  1  0  0  0  0
  6  7  2  0  0  0  0
  8  9  1  0  0  0  0
  8 10  1  0  0  0  0
 10 11  1  0  0  0  0
 11 12  1  0  0  0  0
 12 13  1  0  0  0  0
 14 15  1  0  0  0  0
 15 16  1  0  0  0  0
 16 23  2  0  0  0  0
 16 17  1  0  0  0  0
 17 18  2  0  0  0  0
 18 20  1  0  0  0  0
 18 19  1  0  0  0  0
 20 21  2  0  0  0  0
 21 22  1  0  0  0  0
 21 23  1  0  0  0  0
M  END
>  <COMPND>
    UNNAMED

>  <AUTHOR>
    GENERATED BY OPEN BABEL 2.4.90

>  <MASTER>
        0    0    0    0    0    0    0    0   23    0   23    0

