__5uob_A_rec_5fj2_xeb_lig_min.pdb
 OpenBabel10201905403D

 23 25  0  0  0  0  0  0  0  0999 V2000
    7.2990   12.5700   32.5050 N   0  0  0  0  0  0  0  0  0  0  0  0
    6.2440   12.0520   31.8420 C   0  0  0  0  0  0  0  0  0  0  0  0
    5.0920   12.7630   31.7540 N   0  0  0  0  0  0  0  0  0  0  0  0
    6.3340   10.7920   31.2440 C   0  0  0  0  0  0  0  0  0  0  0  0
    7.5120   10.0590   31.3380 C   0  0  0  0  0  0  0  0  0  0  0  0
    8.5860   10.6160   32.0230 C   0  0  0  0  0  0  0  0  0  0  0  0
    9.7800    9.9050   32.1410 C   0  0  0  0  0  0  0  0  0  0  0  0
   10.8470   10.4670   32.8420 C   0  0  0  0  0  0  0  0  0  0  0  0
   10.7370   11.7350   33.4190 C   0  0  0  0  0  0  0  0  0  0  0  0
    9.5410   12.4460   33.3000 C   0  0  0  0  0  0  0  0  0  0  0  0
    8.4620   11.8810   32.6040 C   0  0  0  0  0  0  0  0  0  0  0  0
   11.9110   12.3470   34.1540 C   0  0  0  0  0  0  0  0  0  0  0  0
   11.8280   13.7530   33.8760 O   0  0  0  0  0  0  0  0  0  0  0  0
   12.9020   14.6190   33.9420 C   0  0  0  0  0  0  0  0  0  0  0  0
   12.8530   15.8030   33.2060 C   0  0  0  0  0  0  0  0  0  0  0  0
   13.9030   16.7110   33.2400 C   0  0  0  0  0  0  0  0  0  0  0  0
   15.0250   16.4370   34.0210 C   0  0  0  0  0  0  0  0  0  0  0  0
   15.0880   15.2590   34.7660 C   0  0  0  0  0  0  0  0  0  0  0  0
   14.0270   14.3490   34.7280 C   0  0  0  0  0  0  0  0  0  0  0  0
   16.3760   17.6270   34.0520 Cl  0  0  0  0  0  0  0  0  0  0  0  0
   16.3080   14.9410   35.6150 C   0  0  0  0  0  0  0  0  0  0  0  0
   17.5130   14.8240   34.7640 N   0  0  0  0  0  0  0  0  0  0  0  0
   18.7340   15.1760   35.5150 C   0  0  0  0  0  0  0  0  0  0  0  0
  1  2  2  0  0  0  0
  1 11  1  0  0  0  0
  2  4  1  0  0  0  0
  2  3  1  0  0  0  0
  4  5  2  0  0  0  0
  5  6  1  0  0  0  0
  6  7  2  0  0  0  0
  6 11  1  0  0  0  0
  7  8  1  0  0  0  0
  8  9  2  0  0  0  0
  9 10  1  0  0  0  0
  9 12  1  0  0  0  0
 10 11  2  0  0  0  0
 12 13  1  0  0  0  0
 13 14  1  0  0  0  0
 14 15  2  0  0  0  0
 14 19  1  0  0  0  0
 15 16  1  0  0  0  0
 16 17  2  0  0  0  0
 17 20  1  0  0  0  0
 17 18  1  0  0  0  0
 18 19  2  0  0  0  0
 18 21  1  0  0  0  0
 21 22  1  0  0  0  0
 22 23  1  0  0  0  0
M  END
>  <COMPND>
    UNNAMED

>  <AUTHOR>
    GENERATED BY OPEN BABEL 2.4.90

>  <MASTER>
        0    0    0    0    0    0    0    0   23    0   23    0

