__5uob_A_rec_4uh7_4v4_lig_min.pdb
 OpenBabel10201900453D

 22 23  0  0  0  0  0  0  0  0999 V2000
   10.6080   13.2620   34.0240 C   0  0  0  0  0  0  0  0  0  0  0  0
   10.6890   11.9090   33.6910 C   0  0  0  0  0  0  0  0  0  0  0  0
   11.9320   11.2850   33.6630 C   0  0  0  0  0  0  0  0  0  0  0  0
   13.0840   12.0130   33.9640 C   0  0  0  0  0  0  0  0  0  0  0  0
   13.0090   13.3640   34.2920 C   0  0  0  0  0  0  0  0  0  0  0  0
   11.7600   13.9920   34.3230 C   0  0  0  0  0  0  0  0  0  0  0  0
   15.4260   13.7710   33.9130 C   0  0  0  0  0  0  0  0  0  0  0  0
   14.1830   14.0610   34.6130 N   0  0  0  0  0  0  0  0  0  0  0  0
   14.1790   15.0530   35.6820 C   0  0  0  0  0  0  0  0  0  0  0  0
   15.1430   14.5020   36.7300 C   0  0  0  0  0  0  0  0  0  0  0  0
   14.5350   13.5390   37.6320 N   0  0  0  0  0  0  0  0  0  0  0  0
   14.5860   13.7670   39.0640 C   0  0  0  0  0  0  0  0  0  0  0  0
    9.2550   13.9230   34.0440 C   0  0  0  0  0  0  0  0  0  0  0  0
    8.9140   14.4090   32.6390 C   0  0  0  0  0  0  0  0  0  0  0  0
    6.8520   13.1320   32.1260 N   0  0  0  0  0  0  0  0  0  0  0  0
    6.1090   12.2550   31.4340 C   0  0  0  0  0  0  0  0  0  0  0  0
    4.8140   12.1290   31.8110 N   0  0  0  0  0  0  0  0  0  0  0  0
    6.6730   11.5160   30.3770 C   0  0  0  0  0  0  0  0  0  0  0  0
    8.0200   11.7300   30.0590 C   0  0  0  0  0  0  0  0  0  0  0  0
    8.7560   12.6590   30.7950 C   0  0  0  0  0  0  0  0  0  0  0  0
    8.1480   13.3640   31.8350 C   0  0  0  0  0  0  0  0  0  0  0  0
    8.7130   10.9770   28.9500 C   0  0  0  0  0  0  0  0  0  0  0  0
  1  2  2  0  0  0  0
  1 13  1  0  0  0  0
  1  6  1  0  0  0  0
  2  3  1  0  0  0  0
  3  4  2  0  0  0  0
  4  5  1  0  0  0  0
  5  6  2  0  0  0  0
  5  8  1  0  0  0  0
  7  8  1  0  0  0  0
  8  9  1  0  0  0  0
  9 10  1  0  0  0  0
 10 11  1  0  0  0  0
 11 12  1  0  0  0  0
 13 14  1  0  0  0  0
 14 21  1  0  0  0  0
 15 16  2  0  0  0  0
 15 21  1  0  0  0  0
 16 18  1  0  0  0  0
 16 17  1  0  0  0  0
 18 19  2  0  0  0  0
 19 22  1  0  0  0  0
 19 20  1  0  0  0  0
 20 21  2  0  0  0  0
M  END
>  <COMPND>
    UNNAMED

>  <AUTHOR>
    GENERATED BY OPEN BABEL 2.4.90

>  <MASTER>
        0    0    0    0    0    0    0    0   22    0   22    0

