__5vv9_A_rec_4cwy_hw1_lig_min.pdb
 OpenBabel10201905243D

 28 30  0  0  1  0  0  0  0  0999 V2000
   14.4400   15.8030   38.8890 C   0  0  2  0  0  0  0  0  0  0  0  0
   13.5940   15.7640   40.1620 C   0  0  0  0  0  0  0  0  0  0  0  0
   12.6270   16.8310   39.9640 N   0  0  0  0  0  0  0  0  0  0  0  0
   12.8260   17.5850   38.7360 C   0  0  0  0  0  0  0  0  0  0  0  0
   13.5540   16.5450   37.8910 C   0  0  2  0  0  0  0  0  0  0  0  0
   14.9420   14.4130   38.4780 C   0  0  0  0  0  0  0  0  0  0  0  0
   16.1680   14.4780   33.8370 N   0  0  0  0  0  0  0  0  0  0  0  0
   16.5940   14.6250   35.1210 C   0  0  0  0  0  0  0  0  0  0  0  0
   17.9220   14.9300   35.4210 C   0  0  0  0  0  0  0  0  0  0  0  0
   18.3170   15.0670   36.7580 C   0  0  0  0  0  0  0  0  0  0  0  0
   19.7620   15.3910   37.0690 C   0  0  0  0  0  0  0  0  0  0  0  0
   17.3660   14.9030   37.7910 C   0  0  0  0  0  0  0  0  0  0  0  0
   15.7010   14.4680   36.1340 N   0  0  0  0  0  0  0  0  0  0  0  0
   16.0390   14.5930   37.4440 C   0  0  0  0  0  0  0  0  0  0  0  0
   12.6020   15.6090   37.3490 O   0  0  0  0  0  0  0  0  0  0  0  0
   11.6640   16.1400   36.4060 C   0  0  0  0  0  0  0  0  0  0  0  0
   11.4420   15.0400   35.3750 C   0  0  0  0  0  0  0  0  0  0  0  0
   10.5100   15.4360   34.2390 C   0  0  0  0  0  0  0  0  0  0  0  0
   10.2890   14.2670   33.2710 C   0  0  0  0  0  0  0  0  0  0  0  0
    8.9170   14.4540   32.6490 C   0  0  0  0  0  0  0  0  0  0  0  0
    8.3000   13.2880   31.8730 C   0  0  0  0  0  0  0  0  0  0  0  0
    7.0380   12.9030   32.1840 N   0  0  0  0  0  0  0  0  0  0  0  0
    6.4060   11.9410   31.5000 C   0  0  0  0  0  0  0  0  0  0  0  0
    5.1470   11.6650   31.8920 N   0  0  0  0  0  0  0  0  0  0  0  0
    7.0370   11.2550   30.4400 C   0  0  0  0  0  0  0  0  0  0  0  0
    8.3540   11.6180   30.1140 C   0  0  0  0  0  0  0  0  0  0  0  0
    8.9740   12.6350   30.8350 C   0  0  0  0  0  0  0  0  0  0  0  0
    9.1300   10.9470   28.9990 C   0  0  0  0  0  0  0  0  0  0  0  0
  1  5  1  0  0  0  0
  1  6  1  6  0  0  0
  1  2  1  0  0  0  0
  2  3  1  0  0  0  0
  3  4  1  0  0  0  0
  4  5  1  0  0  0  0
  5 15  1  1  0  0  0
  6 14  1  0  0  0  0
  7  8  1  0  0  0  0
  8  9  2  0  0  0  0
  8 13  1  0  0  0  0
  9 10  1  0  0  0  0
 10 11  1  0  0  0  0
 10 12  2  0  0  0  0
 12 14  1  0  0  0  0
 13 14  2  0  0  0  0
 15 16  1  0  0  0  0
 16 17  1  0  0  0  0
 17 18  1  0  0  0  0
 18 19  1  0  0  0  0
 19 20  1  0  0  0  0
 20 21  1  0  0  0  0
 21 27  2  0  0  0  0
 21 22  1  0  0  0  0
 22 23  2  0  0  0  0
 23 25  1  0  0  0  0
 23 24  1  0  0  0  0
 25 26  2  0  0  0  0
 26 28  1  0  0  0  0
 26 27  1  0  0  0  0
M  END
>  <COMPND>
    UNNAMED

>  <AUTHOR>
    GENERATED BY OPEN BABEL 2.4.90

>  <MASTER>
        0    0    0    0    0    0    0    0   28    0   28    0

