__5vvg_A_rec_4car_m87_lig_min.pdb
 OpenBabel10201902273D

 22 24  0  0  0  0  0  0  0  0999 V2000
   11.0790   12.4140   33.8040 C   0  0  0  0  0  0  0  0  0  0  0  0
   11.5110   11.2140   33.2150 C   0  0  0  0  0  0  0  0  0  0  0  0
   10.6740   10.4600   32.3810 C   0  0  0  0  0  0  0  0  0  0  0  0
    9.7980   12.8280   33.5800 C   0  0  0  0  0  0  0  0  0  0  0  0
    8.8970   12.0560   32.7880 C   0  0  0  0  0  0  0  0  0  0  0  0
    7.5450   12.4420   32.6440 N   0  0  0  0  0  0  0  0  0  0  0  0
    9.3720   10.9130   32.1110 C   0  0  0  0  0  0  0  0  0  0  0  0
    8.5230   10.1890   31.2540 C   0  0  0  0  0  0  0  0  0  0  0  0
    7.2280   10.6040   31.0660 C   0  0  0  0  0  0  0  0  0  0  0  0
    6.8000   11.8020   31.7650 C   0  0  0  0  0  0  0  0  0  0  0  0
    5.5830   12.2080   31.6510 N   0  0  0  0  0  0  0  0  0  0  0  0
   11.9930   13.2530   34.6320 C   0  0  0  0  0  0  0  0  0  0  0  0
   12.6400   12.6760   35.7240 N   0  0  0  0  0  0  0  0  0  0  0  0
   13.8020   13.4350   36.0790 C   0  0  0  0  0  0  0  0  0  0  0  0
   13.4760   14.0180   37.3960 C   0  0  0  0  0  0  0  0  0  0  0  0
   17.7110   13.1910   39.1110 F   0  0  0  0  0  0  0  0  0  0  0  0
   16.8740   14.1650   38.8480 C   0  0  0  0  0  0  0  0  0  0  0  0
   17.1310   15.5300   39.0820 C   0  0  0  0  0  0  0  0  0  0  0  0
   16.1430   16.4680   38.7560 C   0  0  0  0  0  0  0  0  0  0  0  0
   14.9320   16.0050   38.2010 C   0  0  0  0  0  0  0  0  0  0  0  0
   15.7100   13.7040   38.3000 C   0  0  0  0  0  0  0  0  0  0  0  0
   14.7430   14.6190   37.9690 C   0  0  0  0  0  0  0  0  0  0  0  0
  1  2  2  0  0  0  0
  1  4  1  0  0  0  0
  1 12  1  0  0  0  0
  2  3  1  0  0  0  0
  3  7  2  0  0  0  0
  4  5  2  0  0  0  0
  5  7  1  0  0  0  0
  5  6  1  0  0  0  0
  6 10  2  0  0  0  0
  7  8  1  0  0  0  0
  8  9  2  0  0  0  0
  9 10  1  0  0  0  0
 10 11  1  0  0  0  0
 12 13  1  0  0  0  0
 13 14  1  0  0  0  0
 14 15  1  0  0  0  0
 15 22  1  0  0  0  0
 16 17  1  0  0  0  0
 17 21  2  0  0  0  0
 17 18  1  0  0  0  0
 18 19  2  0  0  0  0
 19 20  1  0  0  0  0
 20 22  2  0  0  0  0
 21 22  1  0  0  0  0
M  END
>  <COMPND>
    UNNAMED

>  <AUTHOR>
    GENERATED BY OPEN BABEL 2.4.90

>  <MASTER>
        0    0    0    0    0    0    0    0   22    0   22    0

