__3n33_D_rec_3n33_aes_lig_docked.pdb
 OpenBabel10171922083D

 13 13  0  0  0  0  0  0  0  0999 V2000
   33.1760  -36.4400   11.4970 C   0  0  0  0  0  0  0  0  0  0  0  0
   32.8360  -37.2690   12.6700 C   0  0  0  0  0  0  0  0  0  0  0  0
   33.8410  -37.8490   13.3910 C   0  0  0  0  0  0  0  0  0  0  0  0
   35.1930  -37.6630   13.0260 C   0  0  0  0  0  0  0  0  0  0  0  0
   35.5180  -36.8480   11.8910 C   0  0  0  0  0  0  0  0  0  0  0  0
   34.4810  -36.2530   11.1390 C   0  0  0  0  0  0  0  0  0  0  0  0
   33.4420  -38.8520   14.7800 S   0  0  0  0  0  0  0  0  0  0  0  0
   32.0550  -38.4340   15.3160 F   0  0  0  0  0  0  0  0  0  0  0  0
   34.4530  -38.6400   15.8250 O   0  0  0  0  0  0  0  0  0  0  0  0
   33.4570  -40.2740   14.4170 O   0  0  0  0  0  0  0  0  0  0  0  0
   34.8020  -35.4460    9.9210 C   0  0  0  0  0  0  0  0  0  0  0  0
   35.7880  -34.3310   10.0120 C   0  0  0  0  0  0  0  0  0  0  0  0
   35.2810  -33.0170   10.3060 N   0  0  0  0  0  0  0  0  0  0  0  0
  1  6  2  0  0  0  0
  1  2  1  0  0  0  0
  2  3  2  0  0  0  0
  3  4  1  0  0  0  0
  3  7  1  0  0  0  0
  4  5  2  0  0  0  0
  5  6  1  0  0  0  0
  6 11  1  0  0  0  0
  7  9  2  0  0  0  0
  7 10  2  0  0  0  0
  7  8  1  0  0  0  0
 11 12  1  0  0  0  0
 12 13  1  0  0  0  0
M  END
>  <MODEL>
       4

>  <COMPND>
    UNNAMED

>  <AUTHOR>
    GENERATED BY OPEN BABEL 2.4.90

>  <MASTER>
        0    0    0    0    0    0    0    0   13    0   13    0

