__2e68_A_rec_2e6d_fum_lig_min.pdb
 OpenBabel10201912363D

  8  7  0  0  0  0  0  0  0  0999 V2000
    5.7720  -13.4020  -13.2930 C   0  0  0  0  0  0  0  0  0  0  0  0
    7.0810  -13.1700  -13.3320 C   0  0  0  0  0  0  0  0  0  0  0  0
    6.1020  -15.7340  -13.6950 O   0  0  0  0  0  0  0  0  0  0  0  0
    5.3380  -14.7570  -13.7210 C   0  0  0  0  0  0  0  0  0  0  0  0
    4.1590  -14.8630  -14.1220 O   0  0  0  0  0  0  0  0  0  0  0  0
    7.6780  -11.8920  -12.8890 C   0  0  0  0  0  0  0  0  0  0  0  0
    7.4180  -11.5480  -11.7350 O   0  0  0  0  0  0  0  0  0  0  0  0
    8.3540  -11.1650  -13.6690 O   0  0  0  0  0  0  0  0  0  0  0  0
  1  4  1  0  0  0  0
  1  2  2  0  0  0  0
  2  6  1  0  0  0  0
  3  4  2  0  0  0  0
  4  5  1  0  0  0  0
  6  8  2  0  0  0  0
  6  7  1  0  0  0  0
M  END
>  <COMPND>
    UNNAMED

>  <AUTHOR>
    GENERATED BY OPEN BABEL 2.4.90

>  <MASTER>
        0    0    0    0    0    0    0    0    8    0    8    0

