__2e68_A_rec_3w1l_hro_lig_min.pdb
 OpenBabel10201914163D

 12 12  0  0  1  0  0  0  0  0999 V2000
    6.0830  -13.5420  -13.9080 C   0  0  0  0  0  0  0  0  0  0  0  0
    7.2780  -13.0760  -13.2780 C   0  0  1  0  0  0  0  0  0  0  0  0
    8.5400  -14.1790  -12.5720 Cl  0  0  0  0  0  0  0  0  0  0  0  0
    7.5520  -11.7010  -13.3450 C   0  0  0  0  0  0  0  0  0  0  0  0
    8.5370  -11.1290  -12.8960 O   0  0  0  0  0  0  0  0  0  0  0  0
    6.6130  -10.8670  -13.9640 N   0  0  0  0  0  0  0  0  0  0  0  0
    5.4200  -11.3470  -14.5480 C   0  0  0  0  0  0  0  0  0  0  0  0
    4.6410  -10.5180  -15.0610 O   0  0  0  0  0  0  0  0  0  0  0  0
    5.1850  -12.6690  -14.4840 N   0  0  0  0  0  0  0  0  0  0  0  0
    4.4650  -14.9290  -13.0220 O   0  0  0  0  0  0  0  0  0  0  0  0
    5.6200  -14.8560  -13.6440 C   0  0  0  0  0  0  0  0  0  0  0  0
    6.2430  -15.8670  -13.7490 O   0  0  0  0  0  0  0  0  0  0  0  0
  1  9  2  0  0  0  0
  1 11  1  0  0  0  0
  1  2  1  0  0  0  0
  2  4  1  0  0  0  0
  2  3  1  6  0  0  0
  4  6  1  0  0  0  0
  4  5  2  0  0  0  0
  6  7  2  0  0  0  0
  7  8  2  0  0  0  0
  7  9  1  0  0  0  0
 10 11  2  0  0  0  0
 11 12  1  0  0  0  0
M  END
>  <COMPND>
    UNNAMED

>  <AUTHOR>
    GENERATED BY OPEN BABEL 2.4.90

>  <MASTER>
        0    0    0    0    0    0    0    0   12    0   12    0

