__2e68_A_rec_3w1a_fot_lig_min.pdb
 OpenBabel10201913583D

 12 12  0  0  0  0  0  0  0  0999 V2000
    5.4140  -11.3960  -14.4230 C   0  0  0  0  0  0  0  0  0  0  0  0
    6.8560  -11.7740  -12.5900 C   0  0  0  0  0  0  0  0  0  0  0  0
    6.6160  -13.1500  -12.7530 C   0  0  0  0  0  0  0  0  0  0  0  0
    4.8740  -10.5270  -15.1960 O   0  0  0  0  0  0  0  0  0  0  0  0
    5.2190  -12.7110  -14.5990 N   0  0  0  0  0  0  0  0  0  0  0  0
    6.2040  -10.9300  -13.3880 N   0  0  0  0  0  0  0  0  0  0  0  0
    7.5510  -11.3290  -11.6680 O   0  0  0  0  0  0  0  0  0  0  0  0
    7.2470  -13.9850  -11.9860 F   0  0  0  0  0  0  0  0  0  0  0  0
    5.7900  -13.6120  -13.7940 C   0  0  0  0  0  0  0  0  0  0  0  0
    5.3740  -15.0260  -13.8480 C   0  0  0  0  0  0  0  0  0  0  0  0
    4.1100  -15.1260  -13.7040 O   0  0  0  0  0  0  0  0  0  0  0  0
    6.1530  -15.9950  -13.8630 O   0  0  0  0  0  0  0  0  0  0  0  0
  1  4  2  0  0  0  0
  1  5  2  0  0  0  0
  1  6  1  0  0  0  0
  2  6  1  0  0  0  0
  2  3  1  0  0  0  0
  2  7  2  0  0  0  0
  3  9  2  0  0  0  0
  3  8  1  0  0  0  0
  5  9  1  0  0  0  0
  9 10  1  0  0  0  0
 10 11  2  0  0  0  0
 10 12  1  0  0  0  0
M  END
>  <COMPND>
    UNNAMED

>  <AUTHOR>
    GENERATED BY OPEN BABEL 2.4.90

>  <MASTER>
        0    0    0    0    0    0    0    0   12    0   12    0

