__2e68_A_rec_2e6f_oxc_lig_docked.pdb
 OpenBabel10201917083D

 11 11  0  0  0  0  0  0  0  0999 V2000
    7.0360  -11.1390  -14.0100 N   0  0  0  0  0  4  0  0  0  0  0  0
    5.8290  -11.3510  -14.5940 C   0  0  0  0  0  0  0  0  0  0  0  0
    5.2400  -10.4080  -15.1770 O   0  0  0  0  0  0  0  0  0  0  0  0
    5.2800  -12.5820  -14.5430 N   0  0  0  0  0  0  0  0  0  0  0  0
    5.9550  -13.5670  -13.9020 C   0  0  0  0  0  0  0  0  0  0  0  0
    7.1530  -13.3630  -13.3040 N   0  0  0  0  0  0  0  0  0  0  0  0
    7.7060  -12.1310  -13.3650 C   0  0  0  0  0  0  0  0  0  0  0  0
    8.8090  -11.9020  -12.8240 O   0  0  0  0  0  0  0  0  0  0  0  0
    5.3210  -14.9060  -13.7610 C   0  0  0  0  0  0  0  0  0  0  0  0
    4.0830  -15.0790  -13.7790 O   0  0  0  0  0  0  0  0  0  0  0  0
    6.1580  -15.8380  -13.6810 O   0  0  0  0  0  0  0  0  0  0  0  0
  1  2  2  0  0  0  0
  1  7  2  0  0  0  0
  2  3  2  0  0  0  0
  2  4  1  0  0  0  0
  4  5  2  0  0  0  0
  5  9  1  0  0  0  0
  5  6  1  0  0  0  0
  6  7  1  0  0  0  0
  7  8  2  0  0  0  0
  9 10  2  0  0  0  0
  9 11  1  0  0  0  0
M  END
>  <MODEL>
       6

>  <COMPND>
    UNNAMED

>  <AUTHOR>
    GENERATED BY OPEN BABEL 2.4.90

>  <MASTER>
        0    0    0    0    0    0    0    0   11    0   11    0

