__2e68_A_rec_2e6f_oxc_lig_min.pdb
 OpenBabel10201914553D

 11 11  0  0  0  0  0  0  0  0999 V2000
    6.2490  -10.9960  -13.3720 N   0  0  0  0  0  4  0  0  0  0  0  0
    5.3600  -11.4530  -14.2900 C   0  0  0  0  0  0  0  0  0  0  0  0
    4.7930  -10.6480  -15.0690 O   0  0  0  0  0  0  0  0  0  0  0  0
    5.1020  -12.7750  -14.3550 N   0  0  0  0  0  0  0  0  0  0  0  0
    5.7390  -13.6040  -13.4920 C   0  0  0  0  0  0  0  0  0  0  0  0
    6.6170  -13.1570  -12.5640 N   0  0  0  0  0  0  0  0  0  0  0  0
    6.8830  -11.8320  -12.5070 C   0  0  0  0  0  0  0  0  0  0  0  0
    7.6850  -11.3800  -11.6630 O   0  0  0  0  0  0  0  0  0  0  0  0
    5.3970  -15.0520  -13.4930 C   0  0  0  0  0  0  0  0  0  0  0  0
    6.2150  -15.9450  -13.8030 O   0  0  0  0  0  0  0  0  0  0  0  0
    4.2270  -15.2790  -13.0990 O   0  0  0  0  0  0  0  0  0  0  0  0
  1  2  2  0  0  0  0
  1  7  2  0  0  0  0
  2  3  2  0  0  0  0
  2  4  1  0  0  0  0
  4  5  2  0  0  0  0
  5  9  1  0  0  0  0
  5  6  1  0  0  0  0
  6  7  1  0  0  0  0
  7  8  2  0  0  0  0
  9 10  2  0  0  0  0
  9 11  1  0  0  0  0
M  END
>  <COMPND>
    UNNAMED

>  <AUTHOR>
    GENERATED BY OPEN BABEL 2.4.90

>  <MASTER>
        0    0    0    0    0    0    0    0   11    0   11    0

