__2e6a_A_rec_2e6d_fum_lig_min.pdb
 OpenBabel10201912413D

  8  7  0  0  0  0  0  0  0  0999 V2000
    5.9230  -13.3730  -13.9090 C   0  0  0  0  0  0  0  0  0  0  0  0
    6.8960  -13.1220  -13.0380 C   0  0  0  0  0  0  0  0  0  0  0  0
    6.0790  -15.7410  -13.6320 O   0  0  0  0  0  0  0  0  0  0  0  0
    5.3750  -14.7540  -13.8940 C   0  0  0  0  0  0  0  0  0  0  0  0
    4.1620  -14.8740  -14.1710 O   0  0  0  0  0  0  0  0  0  0  0  0
    7.5100  -11.7860  -12.8910 C   0  0  0  0  0  0  0  0  0  0  0  0
    7.3820  -11.2520  -11.7890 O   0  0  0  0  0  0  0  0  0  0  0  0
    8.0700  -11.1980  -13.8590 O   0  0  0  0  0  0  0  0  0  0  0  0
  1  4  1  0  0  0  0
  1  2  2  0  0  0  0
  2  6  1  0  0  0  0
  3  4  2  0  0  0  0
  4  5  1  0  0  0  0
  6  8  2  0  0  0  0
  6  7  1  0  0  0  0
M  END
>  <COMPND>
    UNNAMED

>  <AUTHOR>
    GENERATED BY OPEN BABEL 2.4.90

>  <MASTER>
        0    0    0    0    0    0    0    0    8    0    8    0

