__2e6d_A_rec_3w1a_fot_lig_docked.pdb
 OpenBabel10201916223D

 12 12  0  0  0  0  0  0  0  0999 V2000
    5.7820  -11.6500  -14.8370 C   0  0  0  0  0  0  0  0  0  0  0  0
    7.3930  -11.7800  -13.1140 C   0  0  0  0  0  0  0  0  0  0  0  0
    6.9940  -13.1130  -12.9130 C   0  0  0  0  0  0  0  0  0  0  0  0
    5.2430  -10.9210  -15.7430 O   0  0  0  0  0  0  0  0  0  0  0  0
    5.4320  -12.9340  -14.6680 N   0  0  0  0  0  0  0  0  0  0  0  0
    6.7380  -11.0660  -14.0270 N   0  0  0  0  0  0  0  0  0  0  0  0
    8.2390  -11.2290  -12.3990 O   0  0  0  0  0  0  0  0  0  0  0  0
    7.6260  -13.8240  -12.0300 F   0  0  0  0  0  0  0  0  0  0  0  0
    6.0020  -13.6910  -13.7270 C   0  0  0  0  0  0  0  0  0  0  0  0
    5.4390  -15.0140  -13.3940 C   0  0  0  0  0  0  0  0  0  0  0  0
    6.2120  -15.9440  -13.8000 O   0  0  0  0  0  0  0  0  0  0  0  0
    4.2990  -15.2050  -12.9340 O   0  0  0  0  0  0  0  0  0  0  0  0
  1  4  2  0  0  0  0
  1  5  2  0  0  0  0
  1  6  1  0  0  0  0
  2  6  1  0  0  0  0
  2  3  1  0  0  0  0
  2  7  2  0  0  0  0
  3  9  2  0  0  0  0
  3  8  1  0  0  0  0
  5  9  1  0  0  0  0
  9 10  1  0  0  0  0
 10 11  2  0  0  0  0
 10 12  1  0  0  0  0
M  END
>  <MODEL>
       2

>  <COMPND>
    UNNAMED

>  <AUTHOR>
    GENERATED BY OPEN BABEL 2.4.90

>  <MASTER>
        0    0    0    0    0    0    0    0   12    0   12    0

