__2e6f_A_rec_2e6f_oxc_lig_min.pdb
 OpenBabel10201913373D

 11 11  0  0  0  0  0  0  0  0999 V2000
    6.4070  -11.0330  -13.5270 N   0  0  0  0  0  4  0  0  0  0  0  0
    5.5220  -11.4960  -14.4450 C   0  0  0  0  0  0  0  0  0  0  0  0
    4.9870  -10.7040  -15.2580 O   0  0  0  0  0  0  0  0  0  0  0  0
    5.2330  -12.8140  -14.4730 N   0  0  0  0  0  0  0  0  0  0  0  0
    5.8360  -13.6300  -13.5750 C   0  0  0  0  0  0  0  0  0  0  0  0
    6.7100  -13.1750  -12.6460 N   0  0  0  0  0  0  0  0  0  0  0  0
    7.0060  -11.8560  -12.6260 C   0  0  0  0  0  0  0  0  0  0  0  0
    7.8050  -11.3970  -11.7820 O   0  0  0  0  0  0  0  0  0  0  0  0
    5.4600  -15.0690  -13.5370 C   0  0  0  0  0  0  0  0  0  0  0  0
    6.2210  -15.9830  -13.9210 O   0  0  0  0  0  0  0  0  0  0  0  0
    4.3280  -15.2660  -13.0320 O   0  0  0  0  0  0  0  0  0  0  0  0
  1  2  2  0  0  0  0
  1  7  2  0  0  0  0
  2  3  2  0  0  0  0
  2  4  1  0  0  0  0
  4  5  2  0  0  0  0
  5  9  1  0  0  0  0
  5  6  1  0  0  0  0
  6  7  1  0  0  0  0
  7  8  2  0  0  0  0
  9 10  2  0  0  0  0
  9 11  1  0  0  0  0
M  END
>  <COMPND>
    UNNAMED

>  <AUTHOR>
    GENERATED BY OPEN BABEL 2.4.90

>  <MASTER>
        0    0    0    0    0    0    0    0   11    0   11    0

