__3w1a_A_rec_3w1a_fot_lig_min.pdb
 OpenBabel10201911553D

 12 12  0  0  0  0  0  0  0  0999 V2000
    5.4680  -11.3830  -14.3490 C   0  0  0  0  0  0  0  0  0  0  0  0
    6.9100  -11.8010  -12.5250 C   0  0  0  0  0  0  0  0  0  0  0  0
    6.6610  -13.1720  -12.7100 C   0  0  0  0  0  0  0  0  0  0  0  0
    4.9320  -10.4980  -15.1070 O   0  0  0  0  0  0  0  0  0  0  0  0
    5.2640  -12.6940  -14.5470 N   0  0  0  0  0  0  0  0  0  0  0  0
    6.2620  -10.9400  -13.3070 N   0  0  0  0  0  0  0  0  0  0  0  0
    7.6090  -11.3750  -11.5960 O   0  0  0  0  0  0  0  0  0  0  0  0
    7.2880  -14.0240  -11.9570 F   0  0  0  0  0  0  0  0  0  0  0  0
    5.8300  -13.6110  -13.7570 C   0  0  0  0  0  0  0  0  0  0  0  0
    5.4050  -15.0220  -13.8330 C   0  0  0  0  0  0  0  0  0  0  0  0
    4.1420  -15.1170  -13.6850 O   0  0  0  0  0  0  0  0  0  0  0  0
    6.1780  -15.9960  -13.8690 O   0  0  0  0  0  0  0  0  0  0  0  0
  1  4  2  0  0  0  0
  1  5  2  0  0  0  0
  1  6  1  0  0  0  0
  2  6  1  0  0  0  0
  2  3  1  0  0  0  0
  2  7  2  0  0  0  0
  3  9  2  0  0  0  0
  3  8  1  0  0  0  0
  5  9  1  0  0  0  0
  9 10  1  0  0  0  0
 10 11  2  0  0  0  0
 10 12  1  0  0  0  0
M  END
>  <COMPND>
    UNNAMED

>  <AUTHOR>
    GENERATED BY OPEN BABEL 2.4.90

>  <MASTER>
        0    0    0    0    0    0    0    0   12    0   12    0

