__3w1a_A_rec_2e6f_oxc_lig_docked.pdb
 OpenBabel10201915333D

 11 11  0  0  0  0  0  0  0  0999 V2000
    6.8210  -10.9510  -13.8340 N   0  0  0  0  0  4  0  0  0  0  0  0
    5.7240  -11.2840  -14.5620 C   0  0  0  0  0  0  0  0  0  0  0  0
    5.1480  -10.4160  -15.2620 O   0  0  0  0  0  0  0  0  0  0  0  0
    5.2710  -12.5550  -14.5250 N   0  0  0  0  0  0  0  0  0  0  0  0
    5.9280  -13.4560  -13.7550 C   0  0  0  0  0  0  0  0  0  0  0  0
    7.0140  -13.1300  -13.0150 N   0  0  0  0  0  0  0  0  0  0  0  0
    7.4730  -11.8590  -13.0610 C   0  0  0  0  0  0  0  0  0  0  0  0
    8.4710  -11.5190  -12.3910 O   0  0  0  0  0  0  0  0  0  0  0  0
    5.3880  -14.8370  -13.6360 C   0  0  0  0  0  0  0  0  0  0  0  0
    4.1720  -15.1050  -13.7470 O   0  0  0  0  0  0  0  0  0  0  0  0
    6.2830  -15.7000  -13.4700 O   0  0  0  0  0  0  0  0  0  0  0  0
  1  2  2  0  0  0  0
  1  7  2  0  0  0  0
  2  3  2  0  0  0  0
  2  4  1  0  0  0  0
  4  5  2  0  0  0  0
  5  9  1  0  0  0  0
  5  6  1  0  0  0  0
  6  7  1  0  0  0  0
  7  8  2  0  0  0  0
  9 10  2  0  0  0  0
  9 11  1  0  0  0  0
M  END
>  <MODEL>
       8

>  <COMPND>
    UNNAMED

>  <AUTHOR>
    GENERATED BY OPEN BABEL 2.4.90

>  <MASTER>
        0    0    0    0    0    0    0    0   11    0   11    0

