__3w1l_A_rec_3w1p_ero_lig_min.pdb
 OpenBabel10201913063D

 13 13  0  0  0  0  0  0  0  0999 V2000
    5.6660  -13.6930  -13.6860 C   0  0  0  0  0  0  0  0  0  0  0  0
    4.9290  -12.7810  -14.3820 N   0  0  0  0  0  0  0  0  0  0  0  0
    5.1610  -11.4250  -14.2000 C   0  0  0  0  0  0  0  0  0  0  0  0
    4.5370  -10.5740  -14.8350 O   0  0  0  0  0  0  0  0  0  0  0  0
    6.0900  -10.9960  -13.2760 N   0  0  0  0  0  0  0  0  0  0  0  0
    6.8390  -11.8920  -12.5260 C   0  0  0  0  0  0  0  0  0  0  0  0
    7.6200  -11.4170  -11.7180 O   0  0  0  0  0  0  0  0  0  0  0  0
    6.6040  -13.2660  -12.7020 C   0  0  0  0  0  0  0  0  0  0  0  0
    4.1090  -15.3120  -13.4590 O   0  0  0  0  0  0  0  0  0  0  0  0
    5.2910  -15.0240  -13.8480 C   0  0  0  0  0  0  0  0  0  0  0  0
    6.0750  -15.9040  -14.1320 O   0  0  0  0  0  0  0  0  0  0  0  0
    7.2990  -14.2390  -11.9410 C   0  0  0  0  0  0  0  0  0  0  0  0
    8.6910  -14.5910  -12.2330 C   0  0  0  0  0  0  0  0  0  0  0  0
  1  2  1  0  0  0  0
  1 10  1  0  0  0  0
  1  8  2  0  0  0  0
  2  3  2  0  0  0  0
  3  4  2  0  0  0  0
  3  5  1  0  0  0  0
  5  6  1  0  0  0  0
  6  8  1  0  0  0  0
  6  7  2  0  0  0  0
  8 12  1  0  0  0  0
  9 10  2  0  0  0  0
 10 11  1  0  0  0  0
 12 13  1  0  0  0  0
M  END
>  <COMPND>
    UNNAMED

>  <AUTHOR>
    GENERATED BY OPEN BABEL 2.4.90

>  <MASTER>
        0    0    0    0    0    0    0    0   13    0   13    0

