__3w1l_A_rec_3w1m_rro_lig_docked.pdb
 OpenBabel10201916123D

 12 12  0  0  1  0  0  0  0  0999 V2000
    5.7780  -13.7210  -13.5360 C   0  0  0  0  0  0  0  0  0  0  0  0
    6.8250  -13.2360  -12.7120 C   0  0  1  0  0  0  0  0  0  0  0  0
    7.9120  -14.4160  -11.7730 Br  0  0  0  0  0  0  0  0  0  0  0  0
    7.1720  -11.8830  -12.7060 C   0  0  0  0  0  0  0  0  0  0  0  0
    8.0520  -11.4110  -12.0060 O   0  0  0  0  0  0  0  0  0  0  0  0
    6.3900  -11.0150  -13.4850 N   0  0  0  0  0  0  0  0  0  0  0  0
    5.2990  -11.4530  -14.2240 C   0  0  0  0  0  0  0  0  0  0  0  0
    4.6390  -10.6470  -14.9050 O   0  0  0  0  0  0  0  0  0  0  0  0
    5.0160  -12.8130  -14.2280 N   0  0  0  0  0  0  0  0  0  0  0  0
    5.9890  -15.9060  -14.1390 O   0  0  0  0  0  0  0  0  0  0  0  0
    5.2870  -15.0340  -13.4740 C   0  0  0  0  0  0  0  0  0  0  0  0
    4.1750  -15.3640  -13.0680 O   0  0  0  0  0  0  0  0  0  0  0  0
  1  9  2  0  0  0  0
  1 11  1  0  0  0  0
  1  2  1  0  0  0  0
  2  4  1  0  0  0  0
  2  3  1  6  0  0  0
  4  6  1  0  0  0  0
  4  5  2  0  0  0  0
  6  7  2  0  0  0  0
  7  8  2  0  0  0  0
  7  9  1  0  0  0  0
 10 11  2  0  0  0  0
 11 12  1  0  0  0  0
M  END
>  <MODEL>
       1

>  <COMPND>
    UNNAMED

>  <AUTHOR>
    GENERATED BY OPEN BABEL 2.4.90

>  <MASTER>
        0    0    0    0    0    0    0    0   12    0   12    0

