__3w1l_A_rec_2e6f_oxc_lig_docked.pdb
 OpenBabel10201916123D

 11 11  0  0  0  0  0  0  0  0999 V2000
    6.4310  -10.9770  -13.4230 N   0  0  0  0  0  4  0  0  0  0  0  0
    6.9300  -11.9130  -12.5760 C   0  0  0  0  0  0  0  0  0  0  0  0
    7.7750  -11.5870  -11.7070 O   0  0  0  0  0  0  0  0  0  0  0  0
    6.5030  -13.1880  -12.6800 N   0  0  0  0  0  0  0  0  0  0  0  0
    5.5900  -13.4910  -13.6350 C   0  0  0  0  0  0  0  0  0  0  0  0
    5.0960  -12.5670  -14.4930 N   0  0  0  0  0  0  0  0  0  0  0  0
    5.5180  -11.2880  -14.3810 C   0  0  0  0  0  0  0  0  0  0  0  0
    5.0880  -10.4060  -15.1550 O   0  0  0  0  0  0  0  0  0  0  0  0
    5.1770  -14.9090  -13.8180 C   0  0  0  0  0  0  0  0  0  0  0  0
    5.9820  -15.8630  -13.7840 O   0  0  0  0  0  0  0  0  0  0  0  0
    3.9360  -15.0430  -13.9530 O   0  0  0  0  0  0  0  0  0  0  0  0
  1  2  2  0  0  0  0
  1  7  2  0  0  0  0
  2  3  2  0  0  0  0
  2  4  1  0  0  0  0
  4  5  2  0  0  0  0
  5  9  1  0  0  0  0
  5  6  1  0  0  0  0
  6  7  1  0  0  0  0
  7  8  2  0  0  0  0
  9 10  2  0  0  0  0
  9 11  1  0  0  0  0
M  END
>  <MODEL>
       4

>  <COMPND>
    UNNAMED

>  <AUTHOR>
    GENERATED BY OPEN BABEL 2.4.90

>  <MASTER>
        0    0    0    0    0    0    0    0   11    0   11    0

