__3w1l_A_rec_3w1l_hro_lig_docked.pdb
 OpenBabel10201916123D

 12 12  0  0  1  0  0  0  0  0999 V2000
    5.8430  -13.7470  -13.4740 C   0  0  0  0  0  0  0  0  0  0  0  0
    6.8110  -13.2950  -12.5270 C   0  0  1  0  0  0  0  0  0  0  0  0
    7.8960  -14.4090  -11.5850 Cl  0  0  0  0  0  0  0  0  0  0  0  0
    7.0310  -11.9110  -12.4350 C   0  0  0  0  0  0  0  0  0  0  0  0
    7.8400  -11.3450  -11.7100 O   0  0  0  0  0  0  0  0  0  0  0  0
    6.2480  -11.0610  -13.2250 N   0  0  0  0  0  0  0  0  0  0  0  0
    5.2700  -11.5300  -14.1290 C   0  0  0  0  0  0  0  0  0  0  0  0
    4.6130  -10.6900  -14.7760 O   0  0  0  0  0  0  0  0  0  0  0  0
    5.0860  -12.8600  -14.2100 N   0  0  0  0  0  0  0  0  0  0  0  0
    6.0950  -15.9500  -14.1160 O   0  0  0  0  0  0  0  0  0  0  0  0
    5.3860  -15.0890  -13.4210 C   0  0  0  0  0  0  0  0  0  0  0  0
    4.3450  -15.4720  -12.9840 O   0  0  0  0  0  0  0  0  0  0  0  0
  1  9  2  0  0  0  0
  1 11  1  0  0  0  0
  1  2  1  0  0  0  0
  2  4  1  0  0  0  0
  2  3  1  6  0  0  0
  4  6  1  0  0  0  0
  4  5  2  0  0  0  0
  6  7  2  0  0  0  0
  7  8  2  0  0  0  0
  7  9  1  0  0  0  0
 10 11  2  0  0  0  0
 11 12  1  0  0  0  0
M  END
>  <MODEL>
       1

>  <COMPND>
    UNNAMED

>  <AUTHOR>
    GENERATED BY OPEN BABEL 2.4.90

>  <MASTER>
        0    0    0    0    0    0    0    0   12    0   12    0

