__3w1p_A_rec_3w1l_hro_lig_docked.pdb
 OpenBabel10201916143D

 12 12  0  0  1  0  0  0  0  0999 V2000
    5.7610  -13.7400  -13.7630 C   0  0  0  0  0  0  0  0  0  0  0  0
    6.7720  -13.3870  -12.8180 C   0  0  1  0  0  0  0  0  0  0  0  0
    7.7320  -14.6050  -11.8670 Cl  0  0  0  0  0  0  0  0  0  0  0  0
    7.1380  -12.0340  -12.7350 C   0  0  0  0  0  0  0  0  0  0  0  0
    8.0020  -11.5530  -12.0130 O   0  0  0  0  0  0  0  0  0  0  0  0
    6.4500  -11.1110  -13.5310 N   0  0  0  0  0  0  0  0  0  0  0  0
    5.4280  -11.4800  -14.4330 C   0  0  0  0  0  0  0  0  0  0  0  0
    4.8640  -10.5780  -15.0860 O   0  0  0  0  0  0  0  0  0  0  0  0
    5.1030  -12.7830  -14.5050 N   0  0  0  0  0  0  0  0  0  0  0  0
    5.9450  -16.0230  -14.0480 O   0  0  0  0  0  0  0  0  0  0  0  0
    5.1650  -15.0250  -13.7020 C   0  0  0  0  0  0  0  0  0  0  0  0
    4.0050  -15.2680  -13.5620 O   0  0  0  0  0  0  0  0  0  0  0  0
  1  9  2  0  0  0  0
  1 11  1  0  0  0  0
  1  2  1  0  0  0  0
  2  4  1  0  0  0  0
  2  3  1  6  0  0  0
  4  6  1  0  0  0  0
  4  5  2  0  0  0  0
  6  7  2  0  0  0  0
  7  8  2  0  0  0  0
  7  9  1  0  0  0  0
 10 11  2  0  0  0  0
 11 12  1  0  0  0  0
M  END
>  <MODEL>
       1

>  <COMPND>
    UNNAMED

>  <AUTHOR>
    GENERATED BY OPEN BABEL 2.4.90

>  <MASTER>
        0    0    0    0    0    0    0    0   12    0   12    0

