__3w1p_A_rec_3w1p_ero_lig_min.pdb
 OpenBabel10201915143D

 13 13  0  0  0  0  0  0  0  0999 V2000
    5.6990  -13.6960  -13.7770 C   0  0  0  0  0  0  0  0  0  0  0  0
    5.0350  -12.7670  -14.5230 N   0  0  0  0  0  0  0  0  0  0  0  0
    5.3440  -11.4220  -14.3820 C   0  0  0  0  0  0  0  0  0  0  0  0
    4.7880  -10.5580  -15.0600 O   0  0  0  0  0  0  0  0  0  0  0  0
    6.2760  -11.0160  -13.4480 N   0  0  0  0  0  0  0  0  0  0  0  0
    6.9510  -11.9280  -12.6490 C   0  0  0  0  0  0  0  0  0  0  0  0
    7.7400  -11.4720  -11.8380 O   0  0  0  0  0  0  0  0  0  0  0  0
    6.6380  -13.2900  -12.7850 C   0  0  0  0  0  0  0  0  0  0  0  0
    4.0230  -15.1980  -13.5980 O   0  0  0  0  0  0  0  0  0  0  0  0
    5.2480  -15.0070  -13.9030 C   0  0  0  0  0  0  0  0  0  0  0  0
    5.9910  -15.9490  -14.0790 O   0  0  0  0  0  0  0  0  0  0  0  0
    7.2550  -14.2750  -11.9730 C   0  0  0  0  0  0  0  0  0  0  0  0
    8.6540  -14.6630  -12.1670 C   0  0  0  0  0  0  0  0  0  0  0  0
  1  2  1  0  0  0  0
  1 10  1  0  0  0  0
  1  8  2  0  0  0  0
  2  3  2  0  0  0  0
  3  4  2  0  0  0  0
  3  5  1  0  0  0  0
  5  6  1  0  0  0  0
  6  8  1  0  0  0  0
  6  7  2  0  0  0  0
  8 12  1  0  0  0  0
  9 10  2  0  0  0  0
 10 11  1  0  0  0  0
 12 13  1  0  0  0  0
M  END
>  <COMPND>
    UNNAMED

>  <AUTHOR>
    GENERATED BY OPEN BABEL 2.4.90

>  <MASTER>
        0    0    0    0    0    0    0    0   13    0   13    0

