__3w1q_A_rec_3w2j_qro_lig_docked.pdb
 OpenBabel10201916443D

 21 22  0  0  0  0  0  0  0  0999 V2000
    5.8760  -13.5230  -14.0970 C   0  0  0  0  0  0  0  0  0  0  0  0
    5.4910  -12.6120  -15.1220 N   0  0  0  0  0  0  0  0  0  0  0  0
    5.8220  -11.2920  -15.0310 C   0  0  0  0  0  0  0  0  0  0  0  0
    5.5170  -10.5220  -15.9810 O   0  0  0  0  0  0  0  0  0  0  0  0
    6.5650  -10.8690  -13.9880 N   0  0  0  0  0  0  0  0  0  0  0  0
    6.9930  -11.7160  -12.9660 C   0  0  0  0  0  0  0  0  0  0  0  0
    7.6010  -11.1880  -12.0420 O   0  0  0  0  0  0  0  0  0  0  0  0
    6.5630  -13.0460  -12.9930 C   0  0  0  0  0  0  0  0  0  0  0  0
    6.1330  -15.8150  -14.4490 O   0  0  0  0  0  0  0  0  0  0  0  0
    5.2820  -14.9060  -14.2570 C   0  0  0  0  0  0  0  0  0  0  0  0
    4.0510  -14.9530  -14.1870 O   0  0  0  0  0  0  0  0  0  0  0  0
    6.8550  -13.9690  -11.8550 C   0  0  0  0  0  0  0  0  0  0  0  0
    6.0880  -13.5720  -10.5970 C   0  0  0  0  0  0  0  0  0  0  0  0
    4.7950  -13.8710  -10.6680 C   0  0  0  0  0  0  0  0  0  0  0  0
    3.8090  -12.8780  -10.6810 C   0  0  0  0  0  0  0  0  0  0  0  0
    2.4430  -13.2160  -10.8130 C   0  0  0  0  0  0  0  0  0  0  0  0
    1.5120  -12.2690  -10.9170 F   0  0  0  0  0  0  0  0  0  0  0  0
    2.0070  -14.4890  -10.9120 C   0  0  0  0  0  0  0  0  0  0  0  0
    0.6230  -14.7810  -10.9970 F   0  0  0  0  0  0  0  0  0  0  0  0
    2.9510  -15.5130  -10.8690 C   0  0  0  0  0  0  0  0  0  0  0  0
    4.3240  -15.2130  -10.7290 C   0  0  0  0  0  0  0  0  0  0  0  0
  1  2  1  0  0  0  0
  1 10  1  0  0  0  0
  1  8  2  0  0  0  0
  2  3  2  0  0  0  0
  3  4  2  0  0  0  0
  3  5  1  0  0  0  0
  5  6  1  0  0  0  0
  6  8  1  0  0  0  0
  6  7  2  0  0  0  0
  8 12  1  0  0  0  0
  9 10  2  0  0  0  0
 10 11  1  0  0  0  0
 12 13  1  0  0  0  0
 13 14  1  0  0  0  0
 14 15  2  0  0  0  0
 14 21  1  0  0  0  0
 15 16  1  0  0  0  0
 16 17  1  0  0  0  0
 16 18  2  0  0  0  0
 18 19  1  0  0  0  0
 18 20  1  0  0  0  0
 20 21  2  0  0  0  0
M  END
>  <MODEL>
       5

>  <COMPND>
    UNNAMED

>  <AUTHOR>
    GENERATED BY OPEN BABEL 2.4.90

>  <MASTER>
        0    0    0    0    0    0    0    0   21    0   21    0

