__3w1q_A_rec_3w76_w76_lig_min.pdb
 OpenBabel10201911423D

 21 22  0  0  0  0  0  0  0  0999 V2000
    5.8330  -13.4490  -14.0630 C   0  0  0  0  0  0  0  0  0  0  0  0
    5.5210  -12.5950  -15.1530 N   0  0  0  0  0  0  0  0  0  0  0  0
    5.9040  -11.2740  -15.1130 C   0  0  0  0  0  0  0  0  0  0  0  0
    5.6480  -10.5020  -16.1020 O   0  0  0  0  0  0  0  0  0  0  0  0
    6.6390  -10.8350  -14.0690 N   0  0  0  0  0  0  0  0  0  0  0  0
    6.9850  -11.6580  -13.0020 C   0  0  0  0  0  0  0  0  0  0  0  0
    7.5980  -11.1250  -12.0880 O   0  0  0  0  0  0  0  0  0  0  0  0
    6.5590  -12.9900  -13.0000 C   0  0  0  0  0  0  0  0  0  0  0  0
    3.9940  -14.8430  -14.1770 O   0  0  0  0  0  0  0  0  0  0  0  0
    5.2790  -14.7990  -14.2470 C   0  0  0  0  0  0  0  0  0  0  0  0
    6.0400  -15.8120  -14.3940 O   0  0  0  0  0  0  0  0  0  0  0  0
    6.8400  -13.9160  -11.8670 C   0  0  0  0  0  0  0  0  0  0  0  0
    6.2570  -13.3430  -10.6100 C   0  0  0  0  0  0  0  0  0  0  0  0
    4.8600  -13.3930  -10.6380 C   0  0  0  0  0  0  0  0  0  0  0  0
    4.0610  -14.5470  -10.7140 C   0  0  0  0  0  0  0  0  0  0  0  0
    4.0870  -12.2360  -10.6970 C   0  0  0  0  0  0  0  0  0  0  0  0
    2.7060  -12.2080  -10.7990 C   0  0  0  0  0  0  0  0  0  0  0  0
    1.9190  -13.3360  -10.8180 C   0  0  0  0  0  0  0  0  0  0  0  0
    2.6490  -14.5380  -10.7910 C   0  0  0  0  0  0  0  0  0  0  0  0
    2.1290  -15.7810  -10.8690 O   0  0  0  0  0  0  0  0  0  0  0  0
    0.6930  -15.9560  -10.9770 C   0  0  0  0  0  0  0  0  0  0  0  0
  1  2  1  0  0  0  0
  1 10  1  0  0  0  0
  1  8  2  0  0  0  0
  2  3  2  0  0  0  0
  3  4  2  0  0  0  0
  3  5  1  0  0  0  0
  5  6  1  0  0  0  0
  6  8  1  0  0  0  0
  6  7  2  0  0  0  0
  8 12  1  0  0  0  0
  9 10  2  0  0  0  0
 10 11  1  0  0  0  0
 12 13  1  0  0  0  0
 13 14  1  0  0  0  0
 14 15  2  0  0  0  0
 14 16  1  0  0  0  0
 15 19  1  0  0  0  0
 16 17  2  0  0  0  0
 17 18  1  0  0  0  0
 18 19  2  0  0  0  0
 19 20  1  0  0  0  0
 20 21  1  0  0  0  0
M  END
>  <COMPND>
    UNNAMED

>  <AUTHOR>
    GENERATED BY OPEN BABEL 2.4.90

>  <MASTER>
        0    0    0    0    0    0    0    0   21    0   21    0

