__3w1q_A_rec_3w22_2ro_lig_docked.pdb
 OpenBabel10201916443D

 23 24  0  0  0  0  0  0  0  0999 V2000
    5.9300  -13.5500  -14.2080 C   0  0  0  0  0  0  0  0  0  0  0  0
    5.5670  -12.6250  -15.2220 N   0  0  0  0  0  0  0  0  0  0  0  0
    6.0340  -11.3000  -15.2140 C   0  0  0  0  0  0  0  0  0  0  0  0
    5.7460  -10.4910  -16.1080 O   0  0  0  0  0  0  0  0  0  0  0  0
    6.8370  -10.9070  -14.1640 N   0  0  0  0  0  0  0  0  0  0  0  0
    7.1480  -11.7710  -13.0740 C   0  0  0  0  0  0  0  0  0  0  0  0
    7.8250  -11.2740  -12.1460 O   0  0  0  0  0  0  0  0  0  0  0  0
    6.6770  -13.1240  -13.0910 C   0  0  0  0  0  0  0  0  0  0  0  0
    4.1010  -15.0400  -14.2290 O   0  0  0  0  0  0  0  0  0  0  0  0
    5.3280  -14.8470  -14.3310 C   0  0  0  0  0  0  0  0  0  0  0  0
    6.1020  -15.8110  -14.5660 O   0  0  0  0  0  0  0  0  0  0  0  0
    6.9470  -14.0250  -12.0850 C   0  0  0  0  0  0  0  0  0  0  0  0
    6.4510  -13.4440  -10.7240 C   0  0  0  0  0  0  0  0  0  0  0  0
    5.0320  -13.6560  -10.7570 C   0  0  0  0  0  0  0  0  0  0  0  0
    4.1870  -12.5530  -10.7950 C   0  0  0  0  0  0  0  0  0  0  0  0
    2.7890  -12.6880  -10.8520 C   0  0  0  0  0  0  0  0  0  0  0  0
    2.1520  -13.9530  -10.8620 C   0  0  0  0  0  0  0  0  0  0  0  0
    3.0230  -15.0540  -10.8550 C   0  0  0  0  0  0  0  0  0  0  0  0
    4.4190  -14.8930  -10.8030 C   0  0  0  0  0  0  0  0  0  0  0  0
    0.6770  -13.9440  -10.9710 C   0  0  0  0  0  0  0  0  0  0  0  0
    0.0010  -12.9010  -10.0080 C   0  0  0  0  0  0  0  0  0  0  0  0
    0.2880  -13.4890  -12.4310 C   0  0  0  0  0  0  0  0  0  0  0  0
    0.0390  -15.3590  -10.7260 C   0  0  0  0  0  0  0  0  0  0  0  0
  1  2  1  0  0  0  0
  1 10  1  0  0  0  0
  1  8  2  0  0  0  0
  2  3  2  0  0  0  0
  3  4  2  0  0  0  0
  3  5  1  0  0  0  0
  5  6  1  0  0  0  0
  6  8  1  0  0  0  0
  6  7  2  0  0  0  0
  8 12  1  0  0  0  0
  9 10  2  0  0  0  0
 10 11  1  0  0  0  0
 12 13  1  0  0  0  0
 13 14  1  0  0  0  0
 14 15  2  0  0  0  0
 14 19  1  0  0  0  0
 15 16  1  0  0  0  0
 16 17  2  0  0  0  0
 17 20  1  0  0  0  0
 17 18  1  0  0  0  0
 18 19  2  0  0  0  0
 20 22  1  0  0  0  0
 20 21  1  0  0  0  0
 20 23  1  0  0  0  0
M  END
>  <MODEL>
       4

>  <COMPND>
    UNNAMED

>  <AUTHOR>
    GENERATED BY OPEN BABEL 2.4.90

>  <MASTER>
        0    0    0    0    0    0    0    0   23    0   23    0

