__3w1q_A_rec_2e6a_oro_lig_min.pdb
 OpenBabel10201914163D

 11 11  0  0  0  0  0  0  0  0999 V2000
    5.4720  -12.6550  -14.9880 N   0  0  0  0  0  0  0  0  0  0  0  0
    5.7300  -11.3370  -14.9580 C   0  0  0  0  0  0  0  0  0  0  0  0
    5.2970  -10.5750  -15.8650 O   0  0  0  0  0  0  0  0  0  0  0  0
    6.4740  -10.8080  -13.9480 N   0  0  0  0  0  0  0  0  0  0  0  0
    6.9320  -11.5830  -12.9500 C   0  0  0  0  0  0  0  0  0  0  0  0
    7.5900  -11.0690  -12.0360 O   0  0  0  0  0  0  0  0  0  0  0  0
    6.6600  -12.9580  -12.9290 C   0  0  0  0  0  0  0  0  0  0  0  0
    5.9420  -13.4670  -14.0160 C   0  0  0  0  0  0  0  0  0  0  0  0
    5.5310  -14.8960  -14.0080 C   0  0  0  0  0  0  0  0  0  0  0  0
    6.2120  -15.8270  -14.4860 O   0  0  0  0  0  0  0  0  0  0  0  0
    4.4730  -15.0610  -13.3620 O   0  0  0  0  0  0  0  0  0  0  0  0
  1  2  2  0  0  0  0
  1  8  1  0  0  0  0
  2  3  2  0  0  0  0
  2  4  1  0  0  0  0
  4  5  1  0  0  0  0
  5  7  1  0  0  0  0
  5  6  2  0  0  0  0
  7  8  2  0  0  0  0
  8  9  1  0  0  0  0
  9 11  2  0  0  0  0
  9 10  1  0  0  0  0
M  END
>  <COMPND>
    UNNAMED

>  <AUTHOR>
    GENERATED BY OPEN BABEL 2.4.90

>  <MASTER>
        0    0    0    0    0    0    0    0   11    0   11    0

