__3w1q_A_rec_3w1n_iro_lig_min.pdb
 OpenBabel10201913433D

 12 12  0  0  1  0  0  0  0  0999 V2000
    5.5920  -13.4550  -13.8810 C   0  0  0  0  0  0  0  0  0  0  0  0
    6.4230  -12.8040  -12.9560 C   0  0  2  0  0  0  0  0  0  0  0  0
    7.5790  -13.9400  -11.5610 I   0  0  0  0  0  0  0  0  0  0  0  0
    6.5140  -11.4230  -12.9150 C   0  0  0  0  0  0  0  0  0  0  0  0
    7.2460  -10.8630  -12.1000 O   0  0  0  0  0  0  0  0  0  0  0  0
    5.7640  -10.6860  -13.8230 N   0  0  0  0  0  0  0  0  0  0  0  0
    4.9330  -11.3380  -14.7270 C   0  0  0  0  0  0  0  0  0  0  0  0
    4.2720  -10.6660  -15.4890 O   0  0  0  0  0  0  0  0  0  0  0  0
    4.8390  -12.7230  -14.7610 N   0  0  0  0  0  0  0  0  0  0  0  0
    4.5780  -15.2690  -13.0090 O   0  0  0  0  0  0  0  0  0  0  0  0
    5.4190  -14.8380  -13.8260 C   0  0  0  0  0  0  0  0  0  0  0  0
    6.1680  -15.6750  -14.3380 O   0  0  0  0  0  0  0  0  0  0  0  0
  1  9  2  0  0  0  0
  1 11  1  0  0  0  0
  1  2  1  0  0  0  0
  2  4  1  0  0  0  0
  2  3  1  1  0  0  0
  4  6  1  0  0  0  0
  4  5  2  0  0  0  0
  6  7  2  0  0  0  0
  7  8  2  0  0  0  0
  7  9  1  0  0  0  0
 10 11  2  0  0  0  0
 11 12  1  0  0  0  0
M  END
>  <COMPND>
    UNNAMED

>  <AUTHOR>
    GENERATED BY OPEN BABEL 2.4.90

>  <MASTER>
        0    0    0    0    0    0    0    0   12    0   12    0

