__3w1r_B_rec_3w1r_mro_lig_min.pdb
 OpenBabel10201914573D

 19 20  0  0  0  0  0  0  0  0999 V2000
    5.8860  -13.4860  -14.0790 C   0  0  0  0  0  0  0  0  0  0  0  0
    5.6010  -12.6290  -15.1910 N   0  0  0  0  0  0  0  0  0  0  0  0
    5.8870  -11.2820  -15.0960 C   0  0  0  0  0  0  0  0  0  0  0  0
    5.6530  -10.4680  -16.0090 O   0  0  0  0  0  0  0  0  0  0  0  0
    6.6130  -10.8080  -13.9890 N   0  0  0  0  0  0  0  0  0  0  0  0
    6.9630  -11.6650  -12.9410 C   0  0  0  0  0  0  0  0  0  0  0  0
    7.5880  -11.1540  -12.0100 O   0  0  0  0  0  0  0  0  0  0  0  0
    6.5350  -13.0150  -12.9750 C   0  0  0  0  0  0  0  0  0  0  0  0
    6.1320  -15.7620  -14.4370 O   0  0  0  0  0  0  0  0  0  0  0  0
    5.3220  -14.8240  -14.3080 C   0  0  0  0  0  0  0  0  0  0  0  0
    4.0780  -14.8980  -14.3140 O   0  0  0  0  0  0  0  0  0  0  0  0
    6.8320  -13.9840  -11.7960 C   0  0  0  0  0  0  0  0  0  0  0  0
    6.0350  -13.5220  -10.5810 C   0  0  0  0  0  0  0  0  0  0  0  0
    4.6770  -13.8590  -10.7360 C   0  0  0  0  0  0  0  0  0  0  0  0
    3.6360  -12.8780  -10.7920 C   0  0  0  0  0  0  0  0  0  0  0  0
    2.2550  -13.2240  -10.9700 C   0  0  0  0  0  0  0  0  0  0  0  0
    1.9220  -14.5400  -11.1150 C   0  0  0  0  0  0  0  0  0  0  0  0
    2.9200  -15.4920  -11.0410 C   0  0  0  0  0  0  0  0  0  0  0  0
    4.3080  -15.2120  -10.9050 C   0  0  0  0  0  0  0  0  0  0  0  0
  1  2  1  0  0  0  0
  1 10  1  0  0  0  0
  1  8  2  0  0  0  0
  2  3  2  0  0  0  0
  3  4  2  0  0  0  0
  3  5  1  0  0  0  0
  5  6  1  0  0  0  0
  6  8  1  0  0  0  0
  6  7  2  0  0  0  0
  8 12  1  0  0  0  0
  9 10  2  0  0  0  0
 10 11  1  0  0  0  0
 12 13  1  0  0  0  0
 13 14  1  0  0  0  0
 14 15  2  0  0  0  0
 14 19  1  0  0  0  0
 15 16  1  0  0  0  0
 16 17  2  0  0  0  0
 17 18  1  0  0  0  0
 18 19  2  0  0  0  0
M  END
>  <COMPND>
    UNNAMED

>  <AUTHOR>
    GENERATED BY OPEN BABEL 2.4.90

>  <MASTER>
        0    0    0    0    0    0    0    0   19    0   19    0

