__3w1r_B_rec_2e6f_oxc_lig_min.pdb
 OpenBabel10201914153D

 11 11  0  0  0  0  0  0  0  0999 V2000
    5.7480  -10.7730  -13.6810 N   0  0  0  0  0  4  0  0  0  0  0  0
    4.8390  -11.3540  -14.5050 C   0  0  0  0  0  0  0  0  0  0  0  0
    4.0930  -10.6400  -15.2200 O   0  0  0  0  0  0  0  0  0  0  0  0
    4.7550  -12.6990  -14.5480 N   0  0  0  0  0  0  0  0  0  0  0  0
    5.5830  -13.4260  -13.7580 C   0  0  0  0  0  0  0  0  0  0  0  0
    6.4830  -12.8560  -12.9230 N   0  0  0  0  0  0  0  0  0  0  0  0
    6.5720  -11.5080  -12.8890 C   0  0  0  0  0  0  0  0  0  0  0  0
    7.3890  -10.9440  -12.1300 O   0  0  0  0  0  0  0  0  0  0  0  0
    5.4400  -14.9070  -13.7300 C   0  0  0  0  0  0  0  0  0  0  0  0
    6.1870  -15.6760  -14.3710 O   0  0  0  0  0  0  0  0  0  0  0  0
    4.5330  -15.2970  -12.9550 O   0  0  0  0  0  0  0  0  0  0  0  0
  1  2  2  0  0  0  0
  1  7  2  0  0  0  0
  2  3  2  0  0  0  0
  2  4  1  0  0  0  0
  4  5  2  0  0  0  0
  5  9  1  0  0  0  0
  5  6  1  0  0  0  0
  6  7  1  0  0  0  0
  7  8  2  0  0  0  0
  9 10  2  0  0  0  0
  9 11  1  0  0  0  0
M  END
>  <COMPND>
    UNNAMED

>  <AUTHOR>
    GENERATED BY OPEN BABEL 2.4.90

>  <MASTER>
        0    0    0    0    0    0    0    0   11    0   11    0

