__3w1r_B_rec_3w1n_iro_lig_min.pdb
 OpenBabel10201912063D

 12 12  0  0  1  0  0  0  0  0999 V2000
    5.7430  -13.4590  -14.1080 C   0  0  0  0  0  0  0  0  0  0  0  0
    6.1030  -12.8260  -12.9080 C   0  0  2  0  0  0  0  0  0  0  0  0
    6.3430  -13.9710  -11.1180 I   0  0  0  0  0  0  0  0  0  0  0  0
    6.3070  -11.4580  -12.8460 C   0  0  0  0  0  0  0  0  0  0  0  0
    6.6220  -10.9150  -11.7890 O   0  0  0  0  0  0  0  0  0  0  0  0
    6.1520  -10.7160  -14.0110 N   0  0  0  0  0  0  0  0  0  0  0  0
    5.7810  -11.3480  -15.1920 C   0  0  0  0  0  0  0  0  0  0  0  0
    5.6300  -10.6690  -16.1850 O   0  0  0  0  0  0  0  0  0  0  0  0
    5.5720  -12.7200  -15.2490 N   0  0  0  0  0  0  0  0  0  0  0  0
    4.2890  -15.1330  -13.7060 O   0  0  0  0  0  0  0  0  0  0  0  0
    5.4220  -14.8160  -14.1250 C   0  0  0  0  0  0  0  0  0  0  0  0
    6.2230  -15.7400  -14.2980 O   0  0  0  0  0  0  0  0  0  0  0  0
  1  9  2  0  0  0  0
  1 11  1  0  0  0  0
  1  2  1  0  0  0  0
  2  4  1  0  0  0  0
  2  3  1  1  0  0  0
  4  6  1  0  0  0  0
  4  5  2  0  0  0  0
  6  7  2  0  0  0  0
  7  8  2  0  0  0  0
  7  9  1  0  0  0  0
 10 11  2  0  0  0  0
 11 12  1  0  0  0  0
M  END
>  <COMPND>
    UNNAMED

>  <AUTHOR>
    GENERATED BY OPEN BABEL 2.4.90

>  <MASTER>
        0    0    0    0    0    0    0    0   12    0   12    0

