__3w1r_B_rec_3w75_w75_lig_docked.pdb
 OpenBabel10201916383D

 23 24  0  0  0  0  0  0  0  0999 V2000
    5.7610  -13.4390  -14.2360 C   0  0  0  0  0  0  0  0  0  0  0  0
    5.4440  -12.5400  -15.2980 N   0  0  0  0  0  0  0  0  0  0  0  0
    5.9980  -11.3010  -15.3380 C   0  0  0  0  0  0  0  0  0  0  0  0
    5.7240  -10.5280  -16.3120 O   0  0  0  0  0  0  0  0  0  0  0  0
    6.8800  -10.9430  -14.3800 N   0  0  0  0  0  0  0  0  0  0  0  0
    7.2210  -11.7760  -13.3330 C   0  0  0  0  0  0  0  0  0  0  0  0
    8.0080  -11.3080  -12.4880 O   0  0  0  0  0  0  0  0  0  0  0  0
    6.6500  -13.0760  -13.2770 C   0  0  0  0  0  0  0  0  0  0  0  0
    3.7350  -14.6740  -14.4220 O   0  0  0  0  0  0  0  0  0  0  0  0
    5.0080  -14.7070  -14.3290 C   0  0  0  0  0  0  0  0  0  0  0  0
    5.7340  -15.7380  -14.4080 O   0  0  0  0  0  0  0  0  0  0  0  0
    6.9680  -13.9620  -12.0860 C   0  0  0  0  0  0  0  0  0  0  0  0
    6.3940  -13.3780  -10.7810 C   0  0  0  0  0  0  0  0  0  0  0  0
    4.9650  -13.4100  -10.7660 C   0  0  0  0  0  0  0  0  0  0  0  0
    4.1410  -14.5400  -10.8810 C   0  0  0  0  0  0  0  0  0  0  0  0
    4.1890  -12.2350  -10.7910 C   0  0  0  0  0  0  0  0  0  0  0  0
    2.8310  -12.1870  -10.7840 C   0  0  0  0  0  0  0  0  0  0  0  0
    2.0650  -13.3060  -10.9150 C   0  0  0  0  0  0  0  0  0  0  0  0
    2.7530  -14.5180  -10.9220 C   0  0  0  0  0  0  0  0  0  0  0  0
    2.2800  -10.8870  -10.8310 O   0  0  0  0  0  0  0  0  0  0  0  0
    3.1690   -9.9690  -11.1800 C   0  0  0  0  0  0  0  0  0  0  0  0
    2.1230  -15.7400  -11.0430 O   0  0  0  0  0  0  0  0  0  0  0  0
    0.6800  -15.7000  -11.1050 C   0  0  0  0  0  0  0  0  0  0  0  0
  1  2  1  0  0  0  0
  1 10  1  0  0  0  0
  1  8  2  0  0  0  0
  2  3  2  0  0  0  0
  3  4  2  0  0  0  0
  3  5  1  0  0  0  0
  5  6  1  0  0  0  0
  6  8  1  0  0  0  0
  6  7  2  0  0  0  0
  8 12  1  0  0  0  0
  9 10  2  0  0  0  0
 10 11  1  0  0  0  0
 12 13  1  0  0  0  0
 13 14  1  0  0  0  0
 14 15  2  0  0  0  0
 14 16  1  0  0  0  0
 15 19  1  0  0  0  0
 16 17  2  0  0  0  0
 17 18  1  0  0  0  0
 17 20  1  0  0  0  0
 18 19  2  0  0  0  0
 19 22  1  0  0  0  0
 20 21  1  0  0  0  0
 22 23  1  0  0  0  0
M  END
>  <MODEL>
      15

>  <COMPND>
    UNNAMED

>  <AUTHOR>
    GENERATED BY OPEN BABEL 2.4.90

>  <MASTER>
        0    0    0    0    0    0    0    0   23    0   23    0

