__3w1t_A_rec_2e6f_oxc_lig_min.pdb
 OpenBabel10201914163D

 11 11  0  0  0  0  0  0  0  0999 V2000
    5.8200  -11.1520  -13.3810 N   0  0  0  0  0  4  0  0  0  0  0  0
    5.2200  -11.4080  -14.5710 C   0  0  0  0  0  0  0  0  0  0  0  0
    4.8380  -10.4580  -15.2980 O   0  0  0  0  0  0  0  0  0  0  0  0
    5.0460  -12.6880  -14.9600 N   0  0  0  0  0  0  0  0  0  0  0  0
    5.4750  -13.6780  -14.1400 C   0  0  0  0  0  0  0  0  0  0  0  0
    6.0630  -13.4340  -12.9450 N   0  0  0  0  0  0  0  0  0  0  0  0
    6.2450  -12.1510  -12.5620 C   0  0  0  0  0  0  0  0  0  0  0  0
    6.7810  -11.8850  -11.4650 O   0  0  0  0  0  0  0  0  0  0  0  0
    5.2110  -15.0940  -14.5150 C   0  0  0  0  0  0  0  0  0  0  0  0
    6.1170  -15.9010  -14.8110 O   0  0  0  0  0  0  0  0  0  0  0  0
    3.9950  -15.3990  -14.4490 O   0  0  0  0  0  0  0  0  0  0  0  0
  1  2  2  0  0  0  0
  1  7  2  0  0  0  0
  2  3  2  0  0  0  0
  2  4  1  0  0  0  0
  4  5  2  0  0  0  0
  5  9  1  0  0  0  0
  5  6  1  0  0  0  0
  6  7  1  0  0  0  0
  7  8  2  0  0  0  0
  9 10  2  0  0  0  0
  9 11  1  0  0  0  0
M  END
>  <COMPND>
    UNNAMED

>  <AUTHOR>
    GENERATED BY OPEN BABEL 2.4.90

>  <MASTER>
        0    0    0    0    0    0    0    0   11    0   11    0

