__3w1t_A_rec_3w1a_fot_lig_min.pdb
 OpenBabel10201912033D

 12 12  0  0  0  0  0  0  0  0999 V2000
    4.7660  -11.4180  -14.7610 C   0  0  0  0  0  0  0  0  0  0  0  0
    6.3100  -11.5640  -12.9790 C   0  0  0  0  0  0  0  0  0  0  0  0
    6.2970  -12.9590  -13.1510 C   0  0  0  0  0  0  0  0  0  0  0  0
    4.0640  -10.6460  -15.5070 O   0  0  0  0  0  0  0  0  0  0  0  0
    4.7870  -12.7460  -14.9480 N   0  0  0  0  0  0  0  0  0  0  0  0
    5.5010  -10.8350  -13.7450 N   0  0  0  0  0  0  0  0  0  0  0  0
    6.9500  -11.0160  -12.0720 O   0  0  0  0  0  0  0  0  0  0  0  0
    7.0830  -13.6830  -12.4140 F   0  0  0  0  0  0  0  0  0  0  0  0
    5.5250  -13.5450  -14.1720 C   0  0  0  0  0  0  0  0  0  0  0  0
    5.3490  -15.0090  -14.2300 C   0  0  0  0  0  0  0  0  0  0  0  0
    4.3180  -15.3610  -13.5680 O   0  0  0  0  0  0  0  0  0  0  0  0
    6.1740  -15.8040  -14.7120 O   0  0  0  0  0  0  0  0  0  0  0  0
  1  4  2  0  0  0  0
  1  5  2  0  0  0  0
  1  6  1  0  0  0  0
  2  6  1  0  0  0  0
  2  3  1  0  0  0  0
  2  7  2  0  0  0  0
  3  9  2  0  0  0  0
  3  8  1  0  0  0  0
  5  9  1  0  0  0  0
  9 10  1  0  0  0  0
 10 11  2  0  0  0  0
 10 12  1  0  0  0  0
M  END
>  <COMPND>
    UNNAMED

>  <AUTHOR>
    GENERATED BY OPEN BABEL 2.4.90

>  <MASTER>
        0    0    0    0    0    0    0    0   12    0   12    0

