__3w1t_A_rec_3w2m_zro_lig_min.pdb
 OpenBabel10201913353D

 23 24  0  0  0  0  0  0  0  0999 V2000
    5.6830  -13.5850  -14.4540 C   0  0  0  0  0  0  0  0  0  0  0  0
    5.3090  -12.7230  -15.4690 N   0  0  0  0  0  0  0  0  0  0  0  0
    5.6350  -11.3910  -15.4630 C   0  0  0  0  0  0  0  0  0  0  0  0
    5.1930  -10.5910  -16.3450 O   0  0  0  0  0  0  0  0  0  0  0  0
    6.3680  -10.9040  -14.4290 N   0  0  0  0  0  0  0  0  0  0  0  0
    6.7590  -11.7240  -13.3540 C   0  0  0  0  0  0  0  0  0  0  0  0
    7.4850  -11.2430  -12.4670 O   0  0  0  0  0  0  0  0  0  0  0  0
    6.3480  -13.0880  -13.3870 C   0  0  0  0  0  0  0  0  0  0  0  0
    5.9780  -15.9390  -14.7310 O   0  0  0  0  0  0  0  0  0  0  0  0
    5.1680  -15.0260  -14.6070 C   0  0  0  0  0  0  0  0  0  0  0  0
    3.9710  -15.1090  -14.4800 O   0  0  0  0  0  0  0  0  0  0  0  0
    6.7890  -13.9030  -12.3210 C   0  0  0  0  0  0  0  0  0  0  0  0
    6.0200  -13.5520  -10.9670 C   0  0  0  0  0  0  0  0  0  0  0  0
    4.7590  -14.1530  -10.9640 C   0  0  0  0  0  0  0  0  0  0  0  0
    4.5770  -15.5240  -10.9500 C   0  0  0  0  0  0  0  0  0  0  0  0
    3.2960  -16.1290  -10.9990 C   0  0  0  0  0  0  0  0  0  0  0  0
    2.1300  -15.3590  -11.2480 C   0  0  0  0  0  0  0  0  0  0  0  0
    2.3130  -13.9570  -11.3170 C   0  0  0  0  0  0  0  0  0  0  0  0
    3.5940  -13.3710  -11.1290 C   0  0  0  0  0  0  0  0  0  0  0  0
    0.7850  -15.9480  -11.4570 C   0  0  0  0  0  0  0  0  0  0  0  0
    0.6960  -17.2460  -11.1540 F   0  0  0  0  0  0  0  0  0  0  0  0
   -0.1890  -15.2220  -10.8180 F   0  0  0  0  0  0  0  0  0  0  0  0
    0.5640  -16.0560  -12.9710 F   0  0  0  0  0  0  0  0  0  0  0  0
  1  2  1  0  0  0  0
  1 10  1  0  0  0  0
  1  8  2  0  0  0  0
  2  3  2  0  0  0  0
  3  4  2  0  0  0  0
  3  5  1  0  0  0  0
  5  6  1  0  0  0  0
  6  8  1  0  0  0  0
  6  7  2  0  0  0  0
  8 12  1  0  0  0  0
  9 10  2  0  0  0  0
 10 11  1  0  0  0  0
 12 13  1  0  0  0  0
 13 14  1  0  0  0  0
 14 19  2  0  0  0  0
 14 15  1  0  0  0  0
 15 16  2  0  0  0  0
 16 17  1  0  0  0  0
 17 18  2  0  0  0  0
 17 20  1  0  0  0  0
 18 19  1  0  0  0  0
 20 23  1  0  0  0  0
 20 22  1  0  0  0  0
 20 21  1  0  0  0  0
M  END
>  <COMPND>
    UNNAMED

>  <AUTHOR>
    GENERATED BY OPEN BABEL 2.4.90

>  <MASTER>
        0    0    0    0    0    0    0    0   23    0   23    0

