__3w1t_A_rec_3w7g_w7g_lig_min.pdb
 OpenBabel10201911363D

 21 22  0  0  0  0  0  0  0  0999 V2000
    5.5850  -13.5810  -14.2950 C   0  0  0  0  0  0  0  0  0  0  0  0
    5.2090  -12.7500  -15.3510 N   0  0  0  0  0  0  0  0  0  0  0  0
    5.4670  -11.4140  -15.3020 C   0  0  0  0  0  0  0  0  0  0  0  0
    5.0770  -10.6640  -16.2020 O   0  0  0  0  0  0  0  0  0  0  0  0
    6.1320  -10.8930  -14.2120 N   0  0  0  0  0  0  0  0  0  0  0  0
    6.5870  -11.7260  -13.1650 C   0  0  0  0  0  0  0  0  0  0  0  0
    7.2000  -11.1240  -12.2590 O   0  0  0  0  0  0  0  0  0  0  0  0
    6.2580  -13.1010  -13.2040 C   0  0  0  0  0  0  0  0  0  0  0  0
    3.9400  -15.1470  -14.4720 O   0  0  0  0  0  0  0  0  0  0  0  0
    5.1620  -14.9390  -14.4860 C   0  0  0  0  0  0  0  0  0  0  0  0
    6.0190  -15.8160  -14.7710 O   0  0  0  0  0  0  0  0  0  0  0  0
    6.6010  -14.0360  -12.1190 C   0  0  0  0  0  0  0  0  0  0  0  0
    5.8560  -13.5630  -10.8730 C   0  0  0  0  0  0  0  0  0  0  0  0
    4.5290  -14.1110  -10.8780 C   0  0  0  0  0  0  0  0  0  0  0  0
    4.2610  -15.5070  -10.8750 C   0  0  0  0  0  0  0  0  0  0  0  0
    2.9340  -16.0000  -10.9190 C   0  0  0  0  0  0  0  0  0  0  0  0
    1.8730  -15.0950  -10.9740 C   0  0  0  0  0  0  0  0  0  0  0  0
    2.0770  -13.7250  -10.9230 C   0  0  0  0  0  0  0  0  0  0  0  0
    3.4210  -13.2250  -10.8750 C   0  0  0  0  0  0  0  0  0  0  0  0
    3.8040  -11.9130  -10.9340 O   0  0  0  0  0  0  0  0  0  0  0  0
    2.7180  -10.8720  -10.9280 C   0  0  0  0  0  0  0  0  0  0  0  0
  1  2  1  0  0  0  0
  1 10  1  0  0  0  0
  1  8  2  0  0  0  0
  2  3  2  0  0  0  0
  3  4  2  0  0  0  0
  3  5  1  0  0  0  0
  5  6  1  0  0  0  0
  6  8  1  0  0  0  0
  6  7  2  0  0  0  0
  8 12  1  0  0  0  0
  9 10  2  0  0  0  0
 10 11  1  0  0  0  0
 12 13  1  0  0  0  0
 13 14  1  0  0  0  0
 14 19  2  0  0  0  0
 14 15  1  0  0  0  0
 15 16  2  0  0  0  0
 16 17  1  0  0  0  0
 17 18  2  0  0  0  0
 18 19  1  0  0  0  0
 19 20  1  0  0  0  0
 20 21  1  0  0  0  0
M  END
>  <COMPND>
    UNNAMED

>  <AUTHOR>
    GENERATED BY OPEN BABEL 2.4.90

>  <MASTER>
        0    0    0    0    0    0    0    0   21    0   21    0

