__3w1t_A_rec_3w3o_roe_lig_min.pdb
 OpenBabel10201912013D

 25 27  0  0  0  0  0  0  0  0999 V2000
    6.4460  -13.9660  -12.1040 C   0  0  0  0  0  0  0  0  0  0  0  0
    5.6800  -13.5860  -14.3850 C   0  0  0  0  0  0  0  0  0  0  0  0
    5.3710  -12.6900  -15.4660 N   0  0  0  0  0  0  0  0  0  0  0  0
    5.6630  -11.3260  -15.3970 C   0  0  0  0  0  0  0  0  0  0  0  0
    5.3620  -10.5530  -16.3230 O   0  0  0  0  0  0  0  0  0  0  0  0
    6.2460  -10.8630  -14.2250 N   0  0  0  0  0  0  0  0  0  0  0  0
    6.5340  -11.6930  -13.0870 C   0  0  0  0  0  0  0  0  0  0  0  0
    7.0800  -11.1600  -12.0860 O   0  0  0  0  0  0  0  0  0  0  0  0
    6.2320  -13.1010  -13.1830 C   0  0  0  0  0  0  0  0  0  0  0  0
    4.0260  -15.1780  -14.6770 O   0  0  0  0  0  0  0  0  0  0  0  0
    5.2780  -14.9480  -14.6090 C   0  0  0  0  0  0  0  0  0  0  0  0
    6.1260  -15.8820  -14.7220 O   0  0  0  0  0  0  0  0  0  0  0  0
    5.4710  -13.5040  -10.8890 C   0  0  0  0  0  0  0  0  0  0  0  0
    4.3100  -14.4270  -10.8870 C   0  0  0  0  0  0  0  0  0  0  0  0
    3.1430  -14.2560  -11.6500 C   0  0  0  0  0  0  0  0  0  0  0  0
    2.1540  -15.2710  -11.5260 C   0  0  0  0  0  0  0  0  0  0  0  0
    1.0360  -15.1400  -12.2880 C   0  0  0  0  0  0  0  0  0  0  0  0
    0.0700  -16.0950  -12.2300 C   0  0  0  0  0  0  0  0  0  0  0  0
    0.1150  -17.2010  -11.4110 C   0  0  0  0  0  0  0  0  0  0  0  0
    1.2190  -17.4010  -10.6260 C   0  0  0  0  0  0  0  0  0  0  0  0
    2.2110  -16.4060  -10.7090 C   0  0  0  0  0  0  0  0  0  0  0  0
    3.3140  -16.5560   -9.9360 C   0  0  0  0  0  0  0  0  0  0  0  0
    4.3220  -15.5660  -10.0830 C   0  0  0  0  0  0  0  0  0  0  0  0
   -0.9410  -18.0880  -11.4080 O   0  0  0  0  0  0  0  0  0  0  0  0
   -2.1880  -17.4790  -11.6240 C   0  0  0  0  0  0  0  0  0  0  0  0
  1  9  1  0  0  0  0
  1 13  1  0  0  0  0
  2  3  1  0  0  0  0
  2 11  1  0  0  0  0
  2  9  2  0  0  0  0
  3  4  2  0  0  0  0
  4  5  2  0  0  0  0
  4  6  1  0  0  0  0
  6  7  1  0  0  0  0
  7  9  1  0  0  0  0
  7  8  2  0  0  0  0
 10 11  2  0  0  0  0
 11 12  1  0  0  0  0
 13 14  1  0  0  0  0
 14 15  2  0  0  0  0
 14 23  1  0  0  0  0
 15 16  1  0  0  0  0
 16 17  2  0  0  0  0
 16 21  1  0  0  0  0
 17 18  1  0  0  0  0
 18 19  2  0  0  0  0
 19 24  1  0  0  0  0
 19 20  1  0  0  0  0
 20 21  2  0  0  0  0
 21 22  1  0  0  0  0
 22 23  2  0  0  0  0
 24 25  1  0  0  0  0
M  END
>  <COMPND>
    UNNAMED

>  <AUTHOR>
    GENERATED BY OPEN BABEL 2.4.90

>  <MASTER>
        0    0    0    0    0    0    0    0   25    0   25    0

