__3w1t_A_rec_3w74_w74_lig_min.pdb
 OpenBabel10201915063D

 24 25  0  0  0  0  0  0  0  0999 V2000
    5.6530  -13.6020  -14.4730 C   0  0  0  0  0  0  0  0  0  0  0  0
    5.1980  -12.7420  -15.4610 N   0  0  0  0  0  0  0  0  0  0  0  0
    5.5130  -11.3870  -15.3960 C   0  0  0  0  0  0  0  0  0  0  0  0
    5.0530  -10.6280  -16.2210 O   0  0  0  0  0  0  0  0  0  0  0  0
    6.2230  -10.9210  -14.3420 N   0  0  0  0  0  0  0  0  0  0  0  0
    6.6830  -11.7440  -13.3150 C   0  0  0  0  0  0  0  0  0  0  0  0
    7.2900  -11.1950  -12.3820 O   0  0  0  0  0  0  0  0  0  0  0  0
    6.3660  -13.1340  -13.3580 C   0  0  0  0  0  0  0  0  0  0  0  0
    5.9440  -15.9050  -14.7550 O   0  0  0  0  0  0  0  0  0  0  0  0
    5.2040  -14.9310  -14.6360 C   0  0  0  0  0  0  0  0  0  0  0  0
    3.9960  -15.1330  -14.4920 O   0  0  0  0  0  0  0  0  0  0  0  0
    6.7970  -13.9820  -12.3190 C   0  0  0  0  0  0  0  0  0  0  0  0
    6.0860  -13.5520  -10.9510 C   0  0  0  0  0  0  0  0  0  0  0  0
    4.7630  -14.0200  -10.9120 C   0  0  0  0  0  0  0  0  0  0  0  0
    3.7140  -13.1190  -10.9350 C   0  0  0  0  0  0  0  0  0  0  0  0
    2.3620  -13.5350  -10.9460 C   0  0  0  0  0  0  0  0  0  0  0  0
    2.0420  -14.9030  -10.9040 C   0  0  0  0  0  0  0  0  0  0  0  0
    3.1260  -15.8010  -10.9080 C   0  0  0  0  0  0  0  0  0  0  0  0
    4.4610  -15.3820  -10.8960 C   0  0  0  0  0  0  0  0  0  0  0  0
    0.6830  -15.3180  -10.8960 O   0  0  0  0  0  0  0  0  0  0  0  0
    0.2730  -15.9610  -12.1130 C   0  0  0  0  0  0  0  0  0  0  0  0
    0.3260  -17.2250  -11.9540 F   0  0  0  0  0  0  0  0  0  0  0  0
    1.1110  -15.5620  -13.1930 F   0  0  0  0  0  0  0  0  0  0  0  0
   -0.9520  -15.6200  -12.3590 F   0  0  0  0  0  0  0  0  0  0  0  0
  1  2  1  0  0  0  0
  1 10  1  0  0  0  0
  1  8  2  0  0  0  0
  2  3  2  0  0  0  0
  3  4  2  0  0  0  0
  3  5  1  0  0  0  0
  5  6  1  0  0  0  0
  6  8  1  0  0  0  0
  6  7  2  0  0  0  0
  8 12  1  0  0  0  0
  9 10  2  0  0  0  0
 10 11  1  0  0  0  0
 12 13  1  0  0  0  0
 13 14  1  0  0  0  0
 14 15  2  0  0  0  0
 14 19  1  0  0  0  0
 15 16  1  0  0  0  0
 16 17  2  0  0  0  0
 17 20  1  0  0  0  0
 17 18  1  0  0  0  0
 18 19  2  0  0  0  0
 20 21  1  0  0  0  0
 21 23  1  0  0  0  0
 21 24  1  0  0  0  0
 21 22  1  0  0  0  0
M  END
>  <COMPND>
    UNNAMED

>  <AUTHOR>
    GENERATED BY OPEN BABEL 2.4.90

>  <MASTER>
        0    0    0    0    0    0    0    0   24    0   24    0

