__3w1t_A_rec_3w7l_w7l_lig_min.pdb
 OpenBabel10201914073D

 25 27  0  0  0  0  0  0  0  0999 V2000
    5.9330  -13.9830  -11.9980 C   0  0  0  0  0  0  0  0  0  0  0  0
    5.1750  -13.5140  -14.2330 C   0  0  0  0  0  0  0  0  0  0  0  0
    4.9410  -12.6740  -15.2970 N   0  0  0  0  0  0  0  0  0  0  0  0
    5.4640  -11.3480  -15.3450 C   0  0  0  0  0  0  0  0  0  0  0  0
    5.2140  -10.5650  -16.2660 O   0  0  0  0  0  0  0  0  0  0  0  0
    6.1460  -10.9420  -14.2480 N   0  0  0  0  0  0  0  0  0  0  0  0
    6.3560  -11.7820  -13.1070 C   0  0  0  0  0  0  0  0  0  0  0  0
    7.0080  -11.2830  -12.1670 O   0  0  0  0  0  0  0  0  0  0  0  0
    5.8450  -13.1150  -13.1180 C   0  0  0  0  0  0  0  0  0  0  0  0
    5.1670  -15.8430  -14.5340 O   0  0  0  0  0  0  0  0  0  0  0  0
    4.5220  -14.8230  -14.3520 C   0  0  0  0  0  0  0  0  0  0  0  0
    3.3120  -14.8490  -14.2730 O   0  0  0  0  0  0  0  0  0  0  0  0
    5.1280  -13.3950  -10.7910 C   0  0  0  0  0  0  0  0  0  0  0  0
    3.7460  -13.6230  -10.9120 C   0  0  0  0  0  0  0  0  0  0  0  0
    2.8460  -12.6050  -11.4040 C   0  0  0  0  0  0  0  0  0  0  0  0
    1.4660  -12.8090  -11.6200 C   0  0  0  0  0  0  0  0  0  0  0  0
    0.9380  -14.0930  -11.3720 C   0  0  0  0  0  0  0  0  0  0  0  0
    1.7800  -15.1230  -10.8800 C   0  0  0  0  0  0  0  0  0  0  0  0
    1.2320  -16.3870  -10.6560 C   0  0  0  0  0  0  0  0  0  0  0  0
    3.1600  -14.9390  -10.6740 C   0  0  0  0  0  0  0  0  0  0  0  0
    3.9260  -16.0070  -10.1830 C   0  0  0  0  0  0  0  0  0  0  0  0
    3.3420  -17.2610   -9.8670 C   0  0  0  0  0  0  0  0  0  0  0  0
    2.0230  -17.4340  -10.1420 C   0  0  0  0  0  0  0  0  0  0  0  0
    1.4780  -18.7060   -9.8960 O   0  0  0  0  0  0  0  0  0  0  0  0
    0.2950  -19.0520  -10.6090 C   0  0  0  0  0  0  0  0  0  0  0  0
  1  9  1  0  0  0  0
  1 13  1  0  0  0  0
  2  3  1  0  0  0  0
  2 11  1  0  0  0  0
  2  9  2  0  0  0  0
  3  4  2  0  0  0  0
  4  5  2  0  0  0  0
  4  6  1  0  0  0  0
  6  7  1  0  0  0  0
  7  9  1  0  0  0  0
  7  8  2  0  0  0  0
 10 11  2  0  0  0  0
 11 12  1  0  0  0  0
 13 14  1  0  0  0  0
 14 15  2  0  0  0  0
 14 20  1  0  0  0  0
 15 16  1  0  0  0  0
 16 17  2  0  0  0  0
 17 18  1  0  0  0  0
 18 20  2  0  0  0  0
 18 19  1  0  0  0  0
 19 23  2  0  0  0  0
 20 21  1  0  0  0  0
 21 22  2  0  0  0  0
 22 23  1  0  0  0  0
 23 24  1  0  0  0  0
 24 25  1  0  0  0  0
M  END
>  <COMPND>
    UNNAMED

>  <AUTHOR>
    GENERATED BY OPEN BABEL 2.4.90

>  <MASTER>
        0    0    0    0    0    0    0    0   25    0   25    0

