__3w1t_A_rec_3w1r_mro_lig_min.pdb
 OpenBabel10201915113D

 19 20  0  0  0  0  0  0  0  0999 V2000
    5.6640  -13.6290  -14.1040 C   0  0  0  0  0  0  0  0  0  0  0  0
    5.3100  -12.8560  -15.2560 N   0  0  0  0  0  0  0  0  0  0  0  0
    5.4170  -11.4810  -15.2060 C   0  0  0  0  0  0  0  0  0  0  0  0
    5.1120  -10.7370  -16.1570 O   0  0  0  0  0  0  0  0  0  0  0  0
    6.0360  -10.8780  -14.0980 N   0  0  0  0  0  0  0  0  0  0  0  0
    6.4570  -11.6450  -13.0060 C   0  0  0  0  0  0  0  0  0  0  0  0
    6.9770  -11.0240  -12.0780 O   0  0  0  0  0  0  0  0  0  0  0  0
    6.2070  -13.0390  -12.9990 C   0  0  0  0  0  0  0  0  0  0  0  0
    6.1680  -15.8030  -14.7250 O   0  0  0  0  0  0  0  0  0  0  0  0
    5.2850  -15.0370  -14.2960 C   0  0  0  0  0  0  0  0  0  0  0  0
    4.1190  -15.3370  -13.9740 O   0  0  0  0  0  0  0  0  0  0  0  0
    6.5850  -13.9190  -11.7740 C   0  0  0  0  0  0  0  0  0  0  0  0
    5.7040  -13.5110  -10.6000 C   0  0  0  0  0  0  0  0  0  0  0  0
    4.4720  -14.1910  -10.6600 C   0  0  0  0  0  0  0  0  0  0  0  0
    3.2310  -13.5260  -10.9170 C   0  0  0  0  0  0  0  0  0  0  0  0
    1.9800  -14.2250  -10.9970 C   0  0  0  0  0  0  0  0  0  0  0  0
    1.9760  -15.5810  -10.8460 C   0  0  0  0  0  0  0  0  0  0  0  0
    3.1680  -16.2250  -10.5770 C   0  0  0  0  0  0  0  0  0  0  0  0
    4.4420  -15.5970  -10.5230 C   0  0  0  0  0  0  0  0  0  0  0  0
  1  2  1  0  0  0  0
  1 10  1  0  0  0  0
  1  8  2  0  0  0  0
  2  3  2  0  0  0  0
  3  4  2  0  0  0  0
  3  5  1  0  0  0  0
  5  6  1  0  0  0  0
  6  8  1  0  0  0  0
  6  7  2  0  0  0  0
  8 12  1  0  0  0  0
  9 10  2  0  0  0  0
 10 11  1  0  0  0  0
 12 13  1  0  0  0  0
 13 14  1  0  0  0  0
 14 15  2  0  0  0  0
 14 19  1  0  0  0  0
 15 16  1  0  0  0  0
 16 17  2  0  0  0  0
 17 18  1  0  0  0  0
 18 19  2  0  0  0  0
M  END
>  <COMPND>
    UNNAMED

>  <AUTHOR>
    GENERATED BY OPEN BABEL 2.4.90

>  <MASTER>
        0    0    0    0    0    0    0    0   19    0   19    0

