__3w1u_B_rec_3w7g_w7g_lig_docked.pdb
 OpenBabel10201916173D

 21 22  0  0  0  0  0  0  0  0999 V2000
    5.7350  -13.5020  -14.0210 C   0  0  0  0  0  0  0  0  0  0  0  0
    5.5350  -12.6440  -15.1030 N   0  0  0  0  0  0  0  0  0  0  0  0
    5.9090  -11.3370  -15.0240 C   0  0  0  0  0  0  0  0  0  0  0  0
    5.6730  -10.5570  -15.9520 O   0  0  0  0  0  0  0  0  0  0  0  0
    6.5160  -10.8750  -13.8750 N   0  0  0  0  0  0  0  0  0  0  0  0
    6.7950  -11.7430  -12.7940 C   0  0  0  0  0  0  0  0  0  0  0  0
    7.3750  -11.1970  -11.8340 O   0  0  0  0  0  0  0  0  0  0  0  0
    6.3460  -13.0820  -12.8710 C   0  0  0  0  0  0  0  0  0  0  0  0
    3.9740  -14.9200  -14.3020 O   0  0  0  0  0  0  0  0  0  0  0  0
    5.2080  -14.8160  -14.2570 C   0  0  0  0  0  0  0  0  0  0  0  0
    6.0010  -15.7580  -14.5190 O   0  0  0  0  0  0  0  0  0  0  0  0
    6.5010  -14.0410  -11.7630 C   0  0  0  0  0  0  0  0  0  0  0  0
    5.7330  -13.4720  -10.5730 C   0  0  0  0  0  0  0  0  0  0  0  0
    4.3360  -13.7680  -10.7250 C   0  0  0  0  0  0  0  0  0  0  0  0
    3.8330  -15.0860  -10.9100 C   0  0  0  0  0  0  0  0  0  0  0  0
    2.4490  -15.3250  -11.0940 C   0  0  0  0  0  0  0  0  0  0  0  0
    1.5680  -14.2430  -11.1020 C   0  0  0  0  0  0  0  0  0  0  0  0
    1.9980  -12.9460  -10.8720 C   0  0  0  0  0  0  0  0  0  0  0  0
    3.4000  -12.7040  -10.6810 C   0  0  0  0  0  0  0  0  0  0  0  0
    4.0060  -11.4830  -10.5560 O   0  0  0  0  0  0  0  0  0  0  0  0
    3.6580  -10.4290  -11.5710 C   0  0  0  0  0  0  0  0  0  0  0  0
  1  2  1  0  0  0  0
  1 10  1  0  0  0  0
  1  8  2  0  0  0  0
  2  3  2  0  0  0  0
  3  4  2  0  0  0  0
  3  5  1  0  0  0  0
  5  6  1  0  0  0  0
  6  8  1  0  0  0  0
  6  7  2  0  0  0  0
  8 12  1  0  0  0  0
  9 10  2  0  0  0  0
 10 11  1  0  0  0  0
 12 13  1  0  0  0  0
 13 14  1  0  0  0  0
 14 19  2  0  0  0  0
 14 15  1  0  0  0  0
 15 16  2  0  0  0  0
 16 17  1  0  0  0  0
 17 18  2  0  0  0  0
 18 19  1  0  0  0  0
 19 20  1  0  0  0  0
 20 21  1  0  0  0  0
M  END
>  <MODEL>
       2

>  <COMPND>
    UNNAMED

>  <AUTHOR>
    GENERATED BY OPEN BABEL 2.4.90

>  <MASTER>
        0    0    0    0    0    0    0    0   21    0   21    0

