__3w1u_B_rec_3w22_2ro_lig_min.pdb
 OpenBabel10201913373D

 23 24  0  0  0  0  0  0  0  0999 V2000
    5.9840  -13.4870  -14.2510 C   0  0  0  0  0  0  0  0  0  0  0  0
    5.6380  -12.5980  -15.3030 N   0  0  0  0  0  0  0  0  0  0  0  0
    6.0750  -11.2630  -15.3150 C   0  0  0  0  0  0  0  0  0  0  0  0
    5.8030  -10.4860  -16.2410 O   0  0  0  0  0  0  0  0  0  0  0  0
    6.8300  -10.8240  -14.2470 N   0  0  0  0  0  0  0  0  0  0  0  0
    7.1200  -11.6510  -13.1230 C   0  0  0  0  0  0  0  0  0  0  0  0
    7.7510  -11.1130  -12.1850 O   0  0  0  0  0  0  0  0  0  0  0  0
    6.6790  -13.0150  -13.1200 C   0  0  0  0  0  0  0  0  0  0  0  0
    6.1040  -15.8320  -14.4800 O   0  0  0  0  0  0  0  0  0  0  0  0
    5.4160  -14.8010  -14.3600 C   0  0  0  0  0  0  0  0  0  0  0  0
    4.1600  -14.8800  -14.3160 O   0  0  0  0  0  0  0  0  0  0  0  0
    6.9320  -13.8820  -12.0800 C   0  0  0  0  0  0  0  0  0  0  0  0
    6.2690  -13.3350  -10.7780 C   0  0  0  0  0  0  0  0  0  0  0  0
    4.9240  -13.8320  -10.8420 C   0  0  0  0  0  0  0  0  0  0  0  0
    3.8730  -12.9260  -10.9050 C   0  0  0  0  0  0  0  0  0  0  0  0
    2.5340  -13.3440  -10.9920 C   0  0  0  0  0  0  0  0  0  0  0  0
    2.1690  -14.7120  -11.0110 C   0  0  0  0  0  0  0  0  0  0  0  0
    3.2460  -15.6110  -10.9770 C   0  0  0  0  0  0  0  0  0  0  0  0
    4.5790  -15.1690  -10.8950 C   0  0  0  0  0  0  0  0  0  0  0  0
    0.7260  -15.0050  -11.1520 C   0  0  0  0  0  0  0  0  0  0  0  0
   -0.1800  -14.0250  -10.3220 C   0  0  0  0  0  0  0  0  0  0  0  0
    0.3190  -14.7850  -12.6610 C   0  0  0  0  0  0  0  0  0  0  0  0
    0.3650  -16.4860  -10.7730 C   0  0  0  0  0  0  0  0  0  0  0  0
  1  2  1  0  0  0  0
  1 10  1  0  0  0  0
  1  8  2  0  0  0  0
  2  3  2  0  0  0  0
  3  4  2  0  0  0  0
  3  5  1  0  0  0  0
  5  6  1  0  0  0  0
  6  8  1  0  0  0  0
  6  7  2  0  0  0  0
  8 12  1  0  0  0  0
  9 10  2  0  0  0  0
 10 11  1  0  0  0  0
 12 13  1  0  0  0  0
 13 14  1  0  0  0  0
 14 15  2  0  0  0  0
 14 19  1  0  0  0  0
 15 16  1  0  0  0  0
 16 17  2  0  0  0  0
 17 20  1  0  0  0  0
 17 18  1  0  0  0  0
 18 19  2  0  0  0  0
 20 22  1  0  0  0  0
 20 21  1  0  0  0  0
 20 23  1  0  0  0  0
M  END
>  <COMPND>
    UNNAMED

>  <AUTHOR>
    GENERATED BY OPEN BABEL 2.4.90

>  <MASTER>
        0    0    0    0    0    0    0    0   23    0   23    0

