__3w1x_B_rec_3w7i_w7i_lig_docked.pdb
 OpenBabel10201915413D

 25 27  0  0  0  0  0  0  0  0999 V2000
    6.7840  -13.9180  -12.0040 C   0  0  0  0  0  0  0  0  0  0  0  0
    5.6640  -13.4380  -14.0970 C   0  0  0  0  0  0  0  0  0  0  0  0
    5.3310  -12.5590  -15.1650 N   0  0  0  0  0  0  0  0  0  0  0  0
    5.8420  -11.2900  -15.2020 C   0  0  0  0  0  0  0  0  0  0  0  0
    5.4970  -10.5080  -16.0850 O   0  0  0  0  0  0  0  0  0  0  0  0
    6.6880  -10.9630  -14.2230 N   0  0  0  0  0  0  0  0  0  0  0  0
    7.0680  -11.7720  -13.1200 C   0  0  0  0  0  0  0  0  0  0  0  0
    7.8610  -11.3710  -12.2620 O   0  0  0  0  0  0  0  0  0  0  0  0
    6.5000  -13.0530  -13.0860 C   0  0  0  0  0  0  0  0  0  0  0  0
    3.7670  -14.7300  -14.1300 O   0  0  0  0  0  0  0  0  0  0  0  0
    4.9970  -14.7660  -14.1780 C   0  0  0  0  0  0  0  0  0  0  0  0
    5.6830  -15.8380  -14.3450 O   0  0  0  0  0  0  0  0  0  0  0  0
    6.1920  -13.3980  -10.6040 C   0  0  0  0  0  0  0  0  0  0  0  0
    4.7790  -13.5250  -10.6080 C   0  0  0  0  0  0  0  0  0  0  0  0
    4.1870  -14.8030  -10.5910 C   0  0  0  0  0  0  0  0  0  0  0  0
    2.7950  -14.9290  -10.7110 C   0  0  0  0  0  0  0  0  0  0  0  0
    2.2050  -16.1830  -10.6650 C   0  0  0  0  0  0  0  0  0  0  0  0
    0.7870  -16.3240  -10.8190 C   0  0  0  0  0  0  0  0  0  0  0  0
   -0.0600  -15.2170  -11.0080 C   0  0  0  0  0  0  0  0  0  0  0  0
    0.5320  -13.9350  -11.0440 C   0  0  0  0  0  0  0  0  0  0  0  0
    1.9730  -13.8260  -10.9050 C   0  0  0  0  0  0  0  0  0  0  0  0
    2.5300  -12.5640  -10.9440 C   0  0  0  0  0  0  0  0  0  0  0  0
    3.9300  -12.4250  -10.8480 C   0  0  0  0  0  0  0  0  0  0  0  0
    4.4290  -11.1740  -10.8260 O   0  0  0  0  0  0  0  0  0  0  0  0
    3.7820  -10.4360  -11.9850 C   0  0  0  0  0  0  0  0  0  0  0  0
  1  9  1  0  0  0  0
  1 13  1  0  0  0  0
  2  3  1  0  0  0  0
  2 11  1  0  0  0  0
  2  9  2  0  0  0  0
  3  4  2  0  0  0  0
  4  5  2  0  0  0  0
  4  6  1  0  0  0  0
  6  7  1  0  0  0  0
  7  9  1  0  0  0  0
  7  8  2  0  0  0  0
 10 11  2  0  0  0  0
 11 12  1  0  0  0  0
 13 14  1  0  0  0  0
 14 23  2  0  0  0  0
 14 15  1  0  0  0  0
 15 16  2  0  0  0  0
 16 21  1  0  0  0  0
 16 17  1  0  0  0  0
 17 18  2  0  0  0  0
 18 19  1  0  0  0  0
 19 20  2  0  0  0  0
 20 21  1  0  0  0  0
 21 22  2  0  0  0  0
 22 23  1  0  0  0  0
 23 24  1  0  0  0  0
 24 25  1  0  0  0  0
M  END
>  <MODEL>
       3

>  <COMPND>
    UNNAMED

>  <AUTHOR>
    GENERATED BY OPEN BABEL 2.4.90

>  <MASTER>
        0    0    0    0    0    0    0    0   25    0   25    0

