__3w1x_B_rec_2e6d_fum_lig_docked.pdb
 OpenBabel10201915423D

  8  7  0  0  0  0  0  0  0  0999 V2000
    6.7480  -12.8710  -13.5750 C   0  0  0  0  0  0  0  0  0  0  0  0
    5.4900  -13.1830  -13.8720 C   0  0  0  0  0  0  0  0  0  0  0  0
    8.0430  -11.1190  -12.5940 O   0  0  0  0  0  0  0  0  0  0  0  0
    6.9860  -11.4700  -13.1400 C   0  0  0  0  0  0  0  0  0  0  0  0
    6.0560  -10.6590  -13.3430 O   0  0  0  0  0  0  0  0  0  0  0  0
    5.0800  -14.5470  -14.2690 C   0  0  0  0  0  0  0  0  0  0  0  0
    3.9000  -14.6800  -14.5980 O   0  0  0  0  0  0  0  0  0  0  0  0
    5.8730  -15.5280  -14.2080 O   0  0  0  0  0  0  0  0  0  0  0  0
  1  4  1  0  0  0  0
  1  2  2  0  0  0  0
  2  6  1  0  0  0  0
  3  4  2  0  0  0  0
  4  5  1  0  0  0  0
  6  8  2  0  0  0  0
  6  7  1  0  0  0  0
M  END
>  <MODEL>
       9

>  <COMPND>
    UNNAMED

>  <AUTHOR>
    GENERATED BY OPEN BABEL 2.4.90

>  <MASTER>
        0    0    0    0    0    0    0    0    8    0    8    0

