__3w1x_B_rec_3w75_w75_lig_docked.pdb
 OpenBabel10201915413D

 23 24  0  0  0  0  0  0  0  0999 V2000
    5.8870  -13.4380  -14.1810 C   0  0  0  0  0  0  0  0  0  0  0  0
    5.5540  -12.5610  -15.2570 N   0  0  0  0  0  0  0  0  0  0  0  0
    6.0670  -11.3050  -15.3040 C   0  0  0  0  0  0  0  0  0  0  0  0
    5.7800  -10.5520  -16.2900 O   0  0  0  0  0  0  0  0  0  0  0  0
    6.9240  -10.9070  -14.3390 N   0  0  0  0  0  0  0  0  0  0  0  0
    7.2790  -11.7170  -13.2790 C   0  0  0  0  0  0  0  0  0  0  0  0
    8.0390  -11.2140  -12.4290 O   0  0  0  0  0  0  0  0  0  0  0  0
    6.7510  -13.0340  -13.2150 C   0  0  0  0  0  0  0  0  0  0  0  0
    3.9070  -14.7410  -14.3920 O   0  0  0  0  0  0  0  0  0  0  0  0
    5.1780  -14.7310  -14.2700 C   0  0  0  0  0  0  0  0  0  0  0  0
    5.9390  -15.7380  -14.3140 O   0  0  0  0  0  0  0  0  0  0  0  0
    7.0830  -13.8970  -12.0110 C   0  0  0  0  0  0  0  0  0  0  0  0
    6.4840  -13.3110  -10.7180 C   0  0  0  0  0  0  0  0  0  0  0  0
    5.0620  -13.4450  -10.6810 C   0  0  0  0  0  0  0  0  0  0  0  0
    4.3230  -14.6380  -10.6680 C   0  0  0  0  0  0  0  0  0  0  0  0
    4.2010  -12.3390  -10.8170 C   0  0  0  0  0  0  0  0  0  0  0  0
    2.8430  -12.3890  -10.7970 C   0  0  0  0  0  0  0  0  0  0  0  0
    2.1610  -13.5690  -10.8020 C   0  0  0  0  0  0  0  0  0  0  0  0
    2.9370  -14.7220  -10.6940 C   0  0  0  0  0  0  0  0  0  0  0  0
    2.1970  -11.1450  -10.9710 O   0  0  0  0  0  0  0  0  0  0  0  0
    0.9550  -11.1470  -10.5110 C   0  0  0  0  0  0  0  0  0  0  0  0
    2.3980  -15.9930  -10.6790 O   0  0  0  0  0  0  0  0  0  0  0  0
    0.9590  -16.0660  -10.7900 C   0  0  0  0  0  0  0  0  0  0  0  0
  1  2  1  0  0  0  0
  1 10  1  0  0  0  0
  1  8  2  0  0  0  0
  2  3  2  0  0  0  0
  3  4  2  0  0  0  0
  3  5  1  0  0  0  0
  5  6  1  0  0  0  0
  6  8  1  0  0  0  0
  6  7  2  0  0  0  0
  8 12  1  0  0  0  0
  9 10  2  0  0  0  0
 10 11  1  0  0  0  0
 12 13  1  0  0  0  0
 13 14  1  0  0  0  0
 14 15  2  0  0  0  0
 14 16  1  0  0  0  0
 15 19  1  0  0  0  0
 16 17  2  0  0  0  0
 17 18  1  0  0  0  0
 17 20  1  0  0  0  0
 18 19  2  0  0  0  0
 19 22  1  0  0  0  0
 20 21  1  0  0  0  0
 22 23  1  0  0  0  0
M  END
>  <MODEL>
       9

>  <COMPND>
    UNNAMED

>  <AUTHOR>
    GENERATED BY OPEN BABEL 2.4.90

>  <MASTER>
        0    0    0    0    0    0    0    0   23    0   23    0

