__3w22_A_rec_3w7d_w7d_lig_docked.pdb
 OpenBabel10201915483D

 25 27  0  0  0  0  0  0  0  0999 V2000
    6.9990  -13.6680  -12.5500 C   0  0  0  0  0  0  0  0  0  0  0  0
    6.2740  -13.7230  -14.9330 C   0  0  0  0  0  0  0  0  0  0  0  0
    6.1030  -13.0910  -16.2020 N   0  0  0  0  0  0  0  0  0  0  0  0
    6.6770  -11.8990  -16.4620 C   0  0  0  0  0  0  0  0  0  0  0  0
    6.5630  -11.3310  -17.5600 O   0  0  0  0  0  0  0  0  0  0  0  0
    7.3820  -11.3000  -15.4600 N   0  0  0  0  0  0  0  0  0  0  0  0
    7.5890  -11.8100  -14.1620 C   0  0  0  0  0  0  0  0  0  0  0  0
    8.2940  -11.2580  -13.3080 O   0  0  0  0  0  0  0  0  0  0  0  0
    7.0200  -13.0800  -13.9170 C   0  0  0  0  0  0  0  0  0  0  0  0
    6.0760  -16.0490  -14.6930 O   0  0  0  0  0  0  0  0  0  0  0  0
    5.4270  -14.9770  -14.7690 C   0  0  0  0  0  0  0  0  0  0  0  0
    4.2150  -14.8090  -14.8390 O   0  0  0  0  0  0  0  0  0  0  0  0
    6.1420  -12.8530  -11.5300 C   0  0  0  0  0  0  0  0  0  0  0  0
    4.8270  -13.3260  -11.5680 C   0  0  0  0  0  0  0  0  0  0  0  0
    4.4000  -14.6220  -11.1140 C   0  0  0  0  0  0  0  0  0  0  0  0
    3.0050  -15.0610  -11.2340 C   0  0  0  0  0  0  0  0  0  0  0  0
    3.8180  -12.4670  -12.0760 C   0  0  0  0  0  0  0  0  0  0  0  0
    2.4840  -12.9430  -12.2360 C   0  0  0  0  0  0  0  0  0  0  0  0
    2.0750  -14.1830  -11.8060 C   0  0  0  0  0  0  0  0  0  0  0  0
    0.6790  -14.5640  -11.9670 C   0  0  0  0  0  0  0  0  0  0  0  0
    0.3880  -15.8270  -11.5030 C   0  0  0  0  0  0  0  0  0  0  0  0
    1.2800  -16.7270  -10.9280 C   0  0  0  0  0  0  0  0  0  0  0  0
    2.6470  -16.3200  -10.7360 C   0  0  0  0  0  0  0  0  0  0  0  0
    3.6340  -17.0510  -10.2510 O   0  0  0  0  0  0  0  0  0  0  0  0
    3.4120  -17.5720   -8.8980 C   0  0  0  0  0  0  0  0  0  0  0  0
  1  9  1  0  0  0  0
  1 13  1  0  0  0  0
  2  3  1  0  0  0  0
  2 11  1  0  0  0  0
  2  9  2  0  0  0  0
  3  4  2  0  0  0  0
  4  5  2  0  0  0  0
  4  6  1  0  0  0  0
  6  7  1  0  0  0  0
  7  9  1  0  0  0  0
  7  8  2  0  0  0  0
 10 11  2  0  0  0  0
 11 12  1  0  0  0  0
 13 14  1  0  0  0  0
 14 17  2  0  0  0  0
 14 15  1  0  0  0  0
 15 16  2  0  0  0  0
 16 19  1  0  0  0  0
 16 23  1  0  0  0  0
 17 18  1  0  0  0  0
 18 19  2  0  0  0  0
 19 20  1  0  0  0  0
 20 21  2  0  0  0  0
 21 22  1  0  0  0  0
 22 23  2  0  0  0  0
 23 24  1  0  0  0  0
 24 25  1  0  0  0  0
M  END
>  <MODEL>
      18

>  <COMPND>
    UNNAMED

>  <AUTHOR>
    GENERATED BY OPEN BABEL 2.4.90

>  <MASTER>
        0    0    0    0    0    0    0    0   25    0   25    0

