__3w22_A_rec_3w7j_w7j_lig_min.pdb
 OpenBabel10201915133D

 26 28  0  0  0  0  0  0  0  0999 V2000
    5.6620  -13.5120  -10.8200 C   0  0  0  0  0  0  0  0  0  0  0  0
    4.4830  -14.2800  -10.8480 C   0  0  0  0  0  0  0  0  0  0  0  0
    4.3480  -15.5660  -10.2480 C   0  0  0  0  0  0  0  0  0  0  0  0
    3.1260  -16.2800  -10.3600 C   0  0  0  0  0  0  0  0  0  0  0  0
    2.9430  -17.5770   -9.8530 C   0  0  0  0  0  0  0  0  0  0  0  0
    1.6890  -18.1660  -10.0260 C   0  0  0  0  0  0  0  0  0  0  0  0
    0.6970  -17.4850  -10.7330 C   0  0  0  0  0  0  0  0  0  0  0  0
    0.8720  -16.2580  -11.2010 C   0  0  0  0  0  0  0  0  0  0  0  0
    2.0840  -15.6930  -11.0560 C   0  0  0  0  0  0  0  0  0  0  0  0
    2.2080  -14.4670  -11.6240 C   0  0  0  0  0  0  0  0  0  0  0  0
    3.3840  -13.7710  -11.5110 C   0  0  0  0  0  0  0  0  0  0  0  0
   -0.5720  -17.9620  -10.9720 C   0  0  0  0  0  0  0  0  0  0  0  0
   -1.0400  -18.8040  -10.2000 O   0  0  0  0  0  0  0  0  0  0  0  0
   -1.2090  -17.4620  -11.8800 O   0  0  0  0  0  0  0  0  0  0  0  0
    6.5900  -13.8620  -12.0700 C   0  0  0  0  0  0  0  0  0  0  0  0
    5.7090  -13.5690  -14.4690 C   0  0  0  0  0  0  0  0  0  0  0  0
    5.4520  -12.7420  -15.6070 N   0  0  0  0  0  0  0  0  0  0  0  0
    5.8350  -11.4080  -15.5720 C   0  0  0  0  0  0  0  0  0  0  0  0
    5.5770  -10.6230  -16.5080 O   0  0  0  0  0  0  0  0  0  0  0  0
    6.4230  -10.9230  -14.4710 N   0  0  0  0  0  0  0  0  0  0  0  0
    6.6910  -11.7040  -13.2930 C   0  0  0  0  0  0  0  0  0  0  0  0
    7.2580  -11.1630  -12.3470 O   0  0  0  0  0  0  0  0  0  0  0  0
    6.3000  -13.0660  -13.2960 C   0  0  0  0  0  0  0  0  0  0  0  0
    3.9890  -15.1410  -14.6460 O   0  0  0  0  0  0  0  0  0  0  0  0
    5.2300  -14.9210  -14.6260 C   0  0  0  0  0  0  0  0  0  0  0  0
    6.0980  -15.8620  -14.6940 O   0  0  0  0  0  0  0  0  0  0  0  0
  1 15  1  0  0  0  0
  1  2  1  0  0  0  0
  2 11  2  0  0  0  0
  2  3  1  0  0  0  0
  3  4  2  0  0  0  0
  4  9  1  0  0  0  0
  4  5  1  0  0  0  0
  5  6  2  0  0  0  0
  6  7  1  0  0  0  0
  7  8  2  0  0  0  0
  7 12  1  0  0  0  0
  8  9  1  0  0  0  0
  9 10  2  0  0  0  0
 10 11  1  0  0  0  0
 12 14  2  0  0  0  0
 12 13  1  0  0  0  0
 15 23  1  0  0  0  0
 16 17  1  0  0  0  0
 16 25  1  0  0  0  0
 16 23  2  0  0  0  0
 17 18  2  0  0  0  0
 18 19  2  0  0  0  0
 18 20  1  0  0  0  0
 20 21  1  0  0  0  0
 21 23  1  0  0  0  0
 21 22  2  0  0  0  0
 24 25  2  0  0  0  0
 25 26  1  0  0  0  0
M  END
>  <COMPND>
    UNNAMED

>  <AUTHOR>
    GENERATED BY OPEN BABEL 2.4.90

>  <MASTER>
        0    0    0    0    0    0    0    0   26    0   26    0

