__3w22_A_rec_3w23_3ro_lig_min.pdb
 OpenBabel10201914223D

 20 21  0  0  0  0  0  0  0  0999 V2000
    5.7110  -13.5720  -14.4570 C   0  0  0  0  0  0  0  0  0  0  0  0
    5.5030  -12.7450  -15.5980 N   0  0  0  0  0  0  0  0  0  0  0  0
    5.7850  -11.3770  -15.6020 C   0  0  0  0  0  0  0  0  0  0  0  0
    5.5370  -10.6410  -16.5720 O   0  0  0  0  0  0  0  0  0  0  0  0
    6.3640  -10.9090  -14.4720 N   0  0  0  0  0  0  0  0  0  0  0  0
    6.6600  -11.6620  -13.3180 C   0  0  0  0  0  0  0  0  0  0  0  0
    7.1840  -11.0820  -12.3470 O   0  0  0  0  0  0  0  0  0  0  0  0
    6.3220  -13.0440  -13.3650 C   0  0  0  0  0  0  0  0  0  0  0  0
    3.9620  -15.0440  -14.6890 O   0  0  0  0  0  0  0  0  0  0  0  0
    5.1990  -15.0360  -14.5970 C   0  0  0  0  0  0  0  0  0  0  0  0
    6.0840  -15.8660  -14.7430 O   0  0  0  0  0  0  0  0  0  0  0  0
    6.5780  -13.7870  -12.1680 C   0  0  0  0  0  0  0  0  0  0  0  0
    5.5410  -13.4650  -10.9490 C   0  0  0  0  0  0  0  0  0  0  0  0
    4.4580  -14.2260  -10.9580 C   0  0  0  0  0  0  0  0  0  0  0  0
    4.4840  -15.4910  -10.3170 C   0  0  0  0  0  0  0  0  0  0  0  0
    3.2830  -16.2120  -10.4190 C   0  0  0  0  0  0  0  0  0  0  0  0
    3.2830  -17.8550   -9.7150 Cl  0  0  0  0  0  0  0  0  0  0  0  0
    2.1250  -15.7530  -11.0650 C   0  0  0  0  0  0  0  0  0  0  0  0
    2.1020  -14.4930  -11.6150 C   0  0  0  0  0  0  0  0  0  0  0  0
    3.2710  -13.7010  -11.5300 C   0  0  0  0  0  0  0  0  0  0  0  0
  1  2  1  0  0  0  0
  1 10  1  0  0  0  0
  1  8  2  0  0  0  0
  2  3  2  0  0  0  0
  3  4  2  0  0  0  0
  3  5  1  0  0  0  0
  5  6  1  0  0  0  0
  6  8  1  0  0  0  0
  6  7  2  0  0  0  0
  8 12  1  0  0  0  0
  9 10  2  0  0  0  0
 10 11  1  0  0  0  0
 12 13  1  0  0  0  0
 13 14  1  0  0  0  0
 14 20  2  0  0  0  0
 14 15  1  0  0  0  0
 15 16  2  0  0  0  0
 16 18  1  0  0  0  0
 16 17  1  0  0  0  0
 18 19  2  0  0  0  0
 19 20  1  0  0  0  0
M  END
>  <COMPND>
    UNNAMED

>  <AUTHOR>
    GENERATED BY OPEN BABEL 2.4.90

>  <MASTER>
        0    0    0    0    0    0    0    0   20    0   20    0

