__3w22_A_rec_3w1a_fot_lig_docked.pdb
 OpenBabel10201915463D

 12 12  0  0  0  0  0  0  0  0999 V2000
    4.2400  -11.4040  -14.1620 C   0  0  0  0  0  0  0  0  0  0  0  0
    6.1040  -11.5370  -12.7170 C   0  0  0  0  0  0  0  0  0  0  0  0
    6.1640  -12.9110  -13.0060 C   0  0  0  0  0  0  0  0  0  0  0  0
    3.3520  -10.6470  -14.6930 O   0  0  0  0  0  0  0  0  0  0  0  0
    4.3250  -12.7070  -14.4660 N   0  0  0  0  0  0  0  0  0  0  0  0
    5.1100  -10.8310  -13.2530 N   0  0  0  0  0  0  0  0  0  0  0  0
    6.8640  -11.0000  -11.9000 O   0  0  0  0  0  0  0  0  0  0  0  0
    7.1300  -13.6120  -12.4950 F   0  0  0  0  0  0  0  0  0  0  0  0
    5.2580  -13.4890  -13.9140 C   0  0  0  0  0  0  0  0  0  0  0  0
    5.1850  -14.9550  -14.0680 C   0  0  0  0  0  0  0  0  0  0  0  0
    4.2280  -15.4300  -13.3710 O   0  0  0  0  0  0  0  0  0  0  0  0
    6.0320  -15.6500  -14.6560 O   0  0  0  0  0  0  0  0  0  0  0  0
  1  4  2  0  0  0  0
  1  5  2  0  0  0  0
  1  6  1  0  0  0  0
  2  6  1  0  0  0  0
  2  3  1  0  0  0  0
  2  7  2  0  0  0  0
  3  9  2  0  0  0  0
  3  8  1  0  0  0  0
  5  9  1  0  0  0  0
  9 10  1  0  0  0  0
 10 11  2  0  0  0  0
 10 12  1  0  0  0  0
M  END
>  <MODEL>
      17

>  <COMPND>
    UNNAMED

>  <AUTHOR>
    GENERATED BY OPEN BABEL 2.4.90

>  <MASTER>
        0    0    0    0    0    0    0    0   12    0   12    0

