__3w22_A_rec_3w87_w87_lig_min.pdb
 OpenBabel10201912363D

 29 31  0  0  0  0  0  0  0  0999 V2000
    5.2920  -13.9170  -11.1740 C   0  0  0  0  0  0  0  0  0  0  0  0
    6.7830  -13.6910  -11.4050 C   0  0  0  0  0  0  0  0  0  0  0  0
    7.5080  -13.9560  -12.7740 C   0  0  0  0  0  0  0  0  0  0  0  0
    5.9570  -13.5020  -14.7970 C   0  0  0  0  0  0  0  0  0  0  0  0
    5.4260  -12.6560  -15.7460 N   0  0  0  0  0  0  0  0  0  0  0  0
    5.8930  -11.3690  -15.7990 C   0  0  0  0  0  0  0  0  0  0  0  0
    5.4160  -10.5910  -16.6950 O   0  0  0  0  0  0  0  0  0  0  0  0
    6.7990  -10.8900  -14.9290 N   0  0  0  0  0  0  0  0  0  0  0  0
    7.3560  -11.7030  -13.9310 C   0  0  0  0  0  0  0  0  0  0  0  0
    8.1670  -11.1660  -13.1620 O   0  0  0  0  0  0  0  0  0  0  0  0
    6.9160  -13.0740  -13.8860 C   0  0  0  0  0  0  0  0  0  0  0  0
    6.0890  -15.8480  -14.7740 O   0  0  0  0  0  0  0  0  0  0  0  0
    5.2850  -14.8510  -14.8010 C   0  0  0  0  0  0  0  0  0  0  0  0
    4.0660  -14.8280  -14.7280 O   0  0  0  0  0  0  0  0  0  0  0  0
    5.1150  -14.8540  -10.1010 C   0  0  0  0  0  0  0  0  0  0  0  0
    3.8580  -15.5810  -10.2370 C   0  0  0  0  0  0  0  0  0  0  0  0
    3.7500  -16.5320   -9.2950 C   0  0  0  0  0  0  0  0  0  0  0  0
    2.9320  -15.3350  -11.2400 C   0  0  0  0  0  0  0  0  0  0  0  0
    1.7480  -16.0860  -11.2570 C   0  0  0  0  0  0  0  0  0  0  0  0
    1.6170  -17.0770  -10.2660 C   0  0  0  0  0  0  0  0  0  0  0  0
    2.6110  -17.2670   -9.2820 C   0  0  0  0  0  0  0  0  0  0  0  0
    2.5010  -18.1830   -8.2520 C   0  0  0  0  0  0  0  0  0  0  0  0
    1.3000  -18.9050   -8.1960 C   0  0  0  0  0  0  0  0  0  0  0  0
    0.2990  -18.7610   -9.1850 C   0  0  0  0  0  0  0  0  0  0  0  0
    0.4530  -17.8310  -10.1910 C   0  0  0  0  0  0  0  0  0  0  0  0
   -0.6420  -17.7560  -11.1760 C   0  0  0  0  0  0  0  0  0  0  0  0
   -0.5810  -17.0950  -12.2190 O   0  0  0  0  0  0  0  0  0  0  0  0
   -1.7610  -18.6410  -10.9430 O   0  0  0  0  0  0  0  0  0  0  0  0
   -2.9640  -18.3320  -11.7090 C   0  0  0  0  0  0  0  0  0  0  0  0
  1  2  1  0  0  0  0
  1 15  1  0  0  0  0
  2  3  1  0  0  0  0
  3 11  1  0  0  0  0
  4  5  1  0  0  0  0
  4 13  1  0  0  0  0
  4 11  2  0  0  0  0
  5  6  2  0  0  0  0
  6  7  2  0  0  0  0
  6  8  1  0  0  0  0
  8  9  1  0  0  0  0
  9 11  1  0  0  0  0
  9 10  2  0  0  0  0
 12 13  2  0  0  0  0
 13 14  1  0  0  0  0
 15 16  1  0  0  0  0
 16 18  2  0  0  0  0
 16 17  1  0  0  0  0
 17 21  2  0  0  0  0
 18 19  1  0  0  0  0
 19 20  2  0  0  0  0
 20 25  1  0  0  0  0
 20 21  1  0  0  0  0
 21 22  1  0  0  0  0
 22 23  2  0  0  0  0
 23 24  1  0  0  0  0
 24 25  2  0  0  0  0
 25 26  1  0  0  0  0
 26 27  2  0  0  0  0
 26 28  1  0  0  0  0
 28 29  1  0  0  0  0
M  END
>  <COMPND>
    UNNAMED

>  <AUTHOR>
    GENERATED BY OPEN BABEL 2.4.90

>  <MASTER>
        0    0    0    0    0    0    0    0   29    0   29    0

