__3w22_A_rec_4jdb_jdb_lig_min.pdb
 OpenBabel10201912083D

 25 27  0  0  0  0  0  0  0  0999 V2000
    6.8020  -13.8610  -12.3390 C   0  0  0  0  0  0  0  0  0  0  0  0
    5.8460  -13.5790  -14.5400 C   0  0  0  0  0  0  0  0  0  0  0  0
    5.4730  -12.7350  -15.6510 N   0  0  0  0  0  0  0  0  0  0  0  0
    5.8310  -11.4000  -15.6950 C   0  0  0  0  0  0  0  0  0  0  0  0
    5.4590  -10.6890  -16.6340 O   0  0  0  0  0  0  0  0  0  0  0  0
    6.5560  -10.9310  -14.6250 N   0  0  0  0  0  0  0  0  0  0  0  0
    6.8720  -11.6840  -13.4620 C   0  0  0  0  0  0  0  0  0  0  0  0
    7.5180  -11.1340  -12.5390 O   0  0  0  0  0  0  0  0  0  0  0  0
    6.5140  -13.0600  -13.4570 C   0  0  0  0  0  0  0  0  0  0  0  0
    4.0730  -15.0620  -14.6540 O   0  0  0  0  0  0  0  0  0  0  0  0
    5.3090  -14.9190  -14.6400 C   0  0  0  0  0  0  0  0  0  0  0  0
    6.0620  -15.8990  -14.7840 O   0  0  0  0  0  0  0  0  0  0  0  0
    6.0880  -13.2870  -11.0750 C   0  0  0  0  0  0  0  0  0  0  0  0
    4.8480  -13.9950  -10.9370 C   0  0  0  0  0  0  0  0  0  0  0  0
    4.7280  -15.2180  -10.2520 C   0  0  0  0  0  0  0  0  0  0  0  0
    3.5000  -15.9170  -10.1660 C   0  0  0  0  0  0  0  0  0  0  0  0
    3.3840  -17.1480   -9.4840 C   0  0  0  0  0  0  0  0  0  0  0  0
    2.1370  -17.8120   -9.4350 C   0  0  0  0  0  0  0  0  0  0  0  0
    0.9960  -17.3070  -10.0860 C   0  0  0  0  0  0  0  0  0  0  0  0
    1.1190  -16.1190  -10.7340 C   0  0  0  0  0  0  0  0  0  0  0  0
    2.3650  -15.4440  -10.7870 C   0  0  0  0  0  0  0  0  0  0  0  0
    2.4460  -14.2220  -11.4510 C   0  0  0  0  0  0  0  0  0  0  0  0
    3.6650  -13.4960  -11.5210 C   0  0  0  0  0  0  0  0  0  0  0  0
    1.9930  -18.9810   -8.7560 O   0  0  0  0  0  0  0  0  0  0  0  0
    2.2840  -18.8500   -7.3290 C   0  0  0  0  0  0  0  0  0  0  0  0
  1  9  1  0  0  0  0
  1 13  1  0  0  0  0
  2  3  1  0  0  0  0
  2 11  1  0  0  0  0
  2  9  2  0  0  0  0
  3  4  2  0  0  0  0
  4  5  2  0  0  0  0
  4  6  1  0  0  0  0
  6  7  1  0  0  0  0
  7  9  1  0  0  0  0
  7  8  2  0  0  0  0
 10 11  2  0  0  0  0
 11 12  1  0  0  0  0
 13 14  1  0  0  0  0
 14 23  2  0  0  0  0
 14 15  1  0  0  0  0
 15 16  2  0  0  0  0
 16 21  1  0  0  0  0
 16 17  1  0  0  0  0
 17 18  2  0  0  0  0
 18 19  1  0  0  0  0
 18 24  1  0  0  0  0
 19 20  2  0  0  0  0
 20 21  1  0  0  0  0
 21 22  2  0  0  0  0
 22 23  1  0  0  0  0
 24 25  1  0  0  0  0
M  END
>  <COMPND>
    UNNAMED

>  <AUTHOR>
    GENERATED BY OPEN BABEL 2.4.90

>  <MASTER>
        0    0    0    0    0    0    0    0   25    0   25    0

