__3w23_A_rec_3w1m_rro_lig_min.pdb
 OpenBabel10201914033D

 12 12  0  0  1  0  0  0  0  0999 V2000
    5.4670  -13.6930  -14.1220 C   0  0  0  0  0  0  0  0  0  0  0  0
    6.2260  -13.0470  -13.1130 C   0  0  1  0  0  0  0  0  0  0  0  0
    7.3570  -14.0270  -12.0090 Br  0  0  0  0  0  0  0  0  0  0  0  0
    6.2730  -11.6540  -13.0240 C   0  0  0  0  0  0  0  0  0  0  0  0
    6.8960  -11.0490  -12.1680 O   0  0  0  0  0  0  0  0  0  0  0  0
    5.4740  -10.9260  -13.9200 N   0  0  0  0  0  0  0  0  0  0  0  0
    4.6470  -11.5390  -14.8530 C   0  0  0  0  0  0  0  0  0  0  0  0
    3.9620  -10.8510  -15.6310 O   0  0  0  0  0  0  0  0  0  0  0  0
    4.6640  -12.9260  -14.9280 N   0  0  0  0  0  0  0  0  0  0  0  0
    4.3010  -15.5130  -13.4050 O   0  0  0  0  0  0  0  0  0  0  0  0
    5.2620  -15.0800  -14.1700 C   0  0  0  0  0  0  0  0  0  0  0  0
    6.0350  -15.9010  -14.6600 O   0  0  0  0  0  0  0  0  0  0  0  0
  1  9  2  0  0  0  0
  1 11  1  0  0  0  0
  1  2  1  0  0  0  0
  2  4  1  0  0  0  0
  2  3  1  6  0  0  0
  4  6  1  0  0  0  0
  4  5  2  0  0  0  0
  6  7  2  0  0  0  0
  7  8  2  0  0  0  0
  7  9  1  0  0  0  0
 10 11  2  0  0  0  0
 11 12  1  0  0  0  0
M  END
>  <COMPND>
    UNNAMED

>  <AUTHOR>
    GENERATED BY OPEN BABEL 2.4.90

>  <MASTER>
        0    0    0    0    0    0    0    0   12    0   12    0

