__3w23_A_rec_3w6y_w6y_lig_min.pdb
 OpenBabel10201912293D

 26 28  0  0  1  0  0  0  0  0999 V2000
    0.9970  -15.7190  -10.7830 C   0  0  0  0  0  0  0  0  0  0  0  0
    0.7550  -17.0450  -10.4140 C   0  0  0  0  0  0  0  0  0  0  0  0
    1.8130  -17.8530  -10.0030 C   0  0  0  0  0  0  0  0  0  0  0  0
    3.1100  -17.3330   -9.9590 C   0  0  0  0  0  0  0  0  0  0  0  0
    3.3540  -16.0040  -10.3280 C   0  0  0  0  0  0  0  0  0  0  0  0
    4.6520  -15.4780  -10.2900 C   0  0  0  0  0  0  0  0  0  0  0  0
    2.2930  -15.1960  -10.7440 C   0  0  0  0  0  0  0  0  0  0  0  0
    2.5500  -13.8740  -11.1160 C   0  0  0  0  0  0  0  0  0  0  0  0
    3.8390  -13.3650  -11.0630 C   0  0  0  0  0  0  0  0  0  0  0  0
    4.9040  -14.1570  -10.6590 C   0  0  0  0  0  0  0  0  0  0  0  0
   -0.3110  -14.8080  -12.4170 O   0  0  0  0  0  0  0  0  0  0  0  0
   -0.0470  -14.9040  -11.2010 C   0  0  0  0  0  0  0  0  0  0  0  0
   -0.6920  -14.2290  -10.3660 O   0  0  0  0  0  0  0  0  0  0  0  0
    6.1690  -13.6160  -10.6200 C   0  0  0  0  0  0  0  0  0  0  0  0
    6.8850  -13.9860  -11.9510 C   0  0  0  0  0  0  0  0  0  0  0  0
    6.4330  -13.2060  -13.0500 C   0  0  1  0  0  0  0  0  0  0  0  0
    6.6970  -11.8260  -13.0690 C   0  0  0  0  0  0  0  0  0  0  0  0
    7.3130  -11.2680  -12.1560 O   0  0  0  0  0  0  0  0  0  0  0  0
    6.2520  -11.0370  -14.1420 N   0  0  0  0  0  0  0  0  0  0  0  0
    5.5480  -11.5910  -15.2010 C   0  0  0  0  0  0  0  0  0  0  0  0
    5.1530  -10.8940  -16.1380 O   0  0  0  0  0  0  0  0  0  0  0  0
    5.2880  -12.9530  -15.1860 N   0  0  0  0  0  0  0  0  0  0  0  0
    5.7260  -13.7640  -14.1340 C   0  0  0  0  0  0  0  0  0  0  0  0
    5.3750  -15.1110  -14.2370 C   0  0  0  0  0  0  0  0  0  0  0  0
    6.1720  -15.9550  -14.7030 O   0  0  0  0  0  0  0  0  0  0  0  0
    4.2230  -15.4610  -13.8610 O   0  0  0  0  0  0  0  0  0  0  0  0
  1 12  1  0  0  0  0
  1  7  2  0  0  0  0
  1  2  1  0  0  0  0
  2  3  2  0  0  0  0
  3  4  1  0  0  0  0
  4  5  2  0  0  0  0
  5  7  1  0  0  0  0
  5  6  1  0  0  0  0
  6 10  2  0  0  0  0
  7  8  1  0  0  0  0
  8  9  2  0  0  0  0
  9 10  1  0  0  0  0
 10 14  1  0  0  0  0
 11 12  2  0  0  0  0
 12 13  1  0  0  0  0
 14 15  1  0  0  0  0
 16 15  1  6  0  0  0
 16 23  1  0  0  0  0
 16 17  1  0  0  0  0
 17 19  1  0  0  0  0
 17 18  2  0  0  0  0
 19 20  2  0  0  0  0
 20 21  2  0  0  0  0
 20 22  1  0  0  0  0
 22 23  2  0  0  0  0
 23 24  1  0  0  0  0
 24 25  2  0  0  0  0
 24 26  1  0  0  0  0
M  END
>  <COMPND>
    UNNAMED

>  <AUTHOR>
    GENERATED BY OPEN BABEL 2.4.90

>  <MASTER>
        0    0    0    0    0    0    0    0   26    0   26    0

