__3w23_A_rec_3w86_w86_lig_min.pdb
 OpenBabel10201913373D

 25 26  0  0  0  0  0  0  0  0999 V2000
    7.5520  -14.1390  -12.7040 C   0  0  0  0  0  0  0  0  0  0  0  0
    6.0610  -13.6350  -14.6840 C   0  0  0  0  0  0  0  0  0  0  0  0
    5.5160  -12.7060  -15.5830 N   0  0  0  0  0  0  0  0  0  0  0  0
    5.9080  -11.4230  -15.5980 C   0  0  0  0  0  0  0  0  0  0  0  0
    5.4760  -10.5940  -16.4470 O   0  0  0  0  0  0  0  0  0  0  0  0
    6.8530  -10.9990  -14.6850 N   0  0  0  0  0  0  0  0  0  0  0  0
    7.4280  -11.8570  -13.7610 C   0  0  0  0  0  0  0  0  0  0  0  0
    8.2360  -11.3970  -12.9530 O   0  0  0  0  0  0  0  0  0  0  0  0
    6.9700  -13.2230  -13.7420 C   0  0  0  0  0  0  0  0  0  0  0  0
    4.1490  -14.9730  -14.6240 O   0  0  0  0  0  0  0  0  0  0  0  0
    5.4120  -14.9150  -14.7300 C   0  0  0  0  0  0  0  0  0  0  0  0
    6.1220  -15.9320  -14.7620 O   0  0  0  0  0  0  0  0  0  0  0  0
    6.9290  -13.8410  -11.2970 C   0  0  0  0  0  0  0  0  0  0  0  0
    5.4780  -14.3290  -11.2640 C   0  0  0  0  0  0  0  0  0  0  0  0
    5.1110  -15.0980   -9.9130 C   0  0  0  0  0  0  0  0  0  0  0  0
    3.9850  -15.9010  -10.0610 C   0  0  0  0  0  0  0  0  0  0  0  0
    3.8090  -17.0720   -9.2920 C   0  0  0  0  0  0  0  0  0  0  0  0
    2.6800  -17.8480   -9.4420 C   0  0  0  0  0  0  0  0  0  0  0  0
    3.0210  -15.5290  -10.9220 C   0  0  0  0  0  0  0  0  0  0  0  0
    1.8700  -16.2990  -11.0820 C   0  0  0  0  0  0  0  0  0  0  0  0
    1.6690  -17.4810  -10.3570 C   0  0  0  0  0  0  0  0  0  0  0  0
    0.5290  -18.2990  -10.5020 C   0  0  0  0  0  0  0  0  0  0  0  0
    0.5340  -19.3630   -9.8640 O   0  0  0  0  0  0  0  0  0  0  0  0
   -0.4470  -18.0090  -11.4930 O   0  0  0  0  0  0  0  0  0  0  0  0
   -1.7340  -17.5500  -11.2090 C   0  0  0  0  0  0  0  0  0  0  0  0
  1  9  1  0  0  0  0
  1 13  1  0  0  0  0
  2  3  1  0  0  0  0
  2 11  1  0  0  0  0
  2  9  2  0  0  0  0
  3  4  2  0  0  0  0
  4  5  2  0  0  0  0
  4  6  1  0  0  0  0
  6  7  1  0  0  0  0
  7  9  1  0  0  0  0
  7  8  2  0  0  0  0
 10 11  2  0  0  0  0
 11 12  1  0  0  0  0
 13 14  1  0  0  0  0
 14 15  1  0  0  0  0
 15 16  1  0  0  0  0
 16 19  2  0  0  0  0
 16 17  1  0  0  0  0
 17 18  2  0  0  0  0
 18 21  1  0  0  0  0
 19 20  1  0  0  0  0
 20 21  2  0  0  0  0
 21 22  1  0  0  0  0
 22 24  1  0  0  0  0
 22 23  2  0  0  0  0
 24 25  1  0  0  0  0
M  END
>  <COMPND>
    UNNAMED

>  <AUTHOR>
    GENERATED BY OPEN BABEL 2.4.90

>  <MASTER>
        0    0    0    0    0    0    0    0   25    0   25    0

