__3w23_A_rec_2e6f_oxc_lig_min.pdb
 OpenBabel10201914573D

 11 11  0  0  0  0  0  0  0  0999 V2000
    5.5530  -10.9710  -13.9270 N   0  0  0  0  0  4  0  0  0  0  0  0
    4.7020  -11.5480  -14.8130 C   0  0  0  0  0  0  0  0  0  0  0  0
    3.9820  -10.8310  -15.5500 O   0  0  0  0  0  0  0  0  0  0  0  0
    4.6480  -12.8930  -14.8930 N   0  0  0  0  0  0  0  0  0  0  0  0
    5.4450  -13.6250  -14.0770 C   0  0  0  0  0  0  0  0  0  0  0  0
    6.2870  -13.0590  -13.1800 N   0  0  0  0  0  0  0  0  0  0  0  0
    6.3480  -11.7110  -13.1080 C   0  0  0  0  0  0  0  0  0  0  0  0
    7.1100  -11.1510  -12.2920 O   0  0  0  0  0  0  0  0  0  0  0  0
    5.3310  -15.1080  -14.0920 C   0  0  0  0  0  0  0  0  0  0  0  0
    6.2170  -15.8550  -14.5600 O   0  0  0  0  0  0  0  0  0  0  0  0
    4.2840  -15.5240  -13.5400 O   0  0  0  0  0  0  0  0  0  0  0  0
  1  2  2  0  0  0  0
  1  7  2  0  0  0  0
  2  3  2  0  0  0  0
  2  4  1  0  0  0  0
  4  5  2  0  0  0  0
  5  9  1  0  0  0  0
  5  6  1  0  0  0  0
  6  7  1  0  0  0  0
  7  8  2  0  0  0  0
  9 10  2  0  0  0  0
  9 11  1  0  0  0  0
M  END
>  <COMPND>
    UNNAMED

>  <AUTHOR>
    GENERATED BY OPEN BABEL 2.4.90

>  <MASTER>
        0    0    0    0    0    0    0    0   11    0   11    0

