__3w2k_A_rec_3w1a_fot_lig_docked.pdb
 OpenBabel10201916413D

 12 12  0  0  0  0  0  0  0  0999 V2000
    4.7390  -11.5640  -14.5240 C   0  0  0  0  0  0  0  0  0  0  0  0
    6.4700  -11.6510  -12.9180 C   0  0  0  0  0  0  0  0  0  0  0  0
    6.3810  -13.0530  -12.9760 C   0  0  0  0  0  0  0  0  0  0  0  0
    3.9880  -10.8160  -15.2460 O   0  0  0  0  0  0  0  0  0  0  0  0
    4.6850  -12.9010  -14.6050 N   0  0  0  0  0  0  0  0  0  0  0  0
    5.6090  -10.9430  -13.6460 N   0  0  0  0  0  0  0  0  0  0  0  0
    7.2320  -11.0690  -12.1360 O   0  0  0  0  0  0  0  0  0  0  0  0
    7.2160  -13.7570  -12.2760 F   0  0  0  0  0  0  0  0  0  0  0  0
    5.4750  -13.6750  -13.8550 C   0  0  0  0  0  0  0  0  0  0  0  0
    5.2340  -15.1290  -13.7760 C   0  0  0  0  0  0  0  0  0  0  0  0
    6.0130  -15.7540  -14.5690 O   0  0  0  0  0  0  0  0  0  0  0  0
    4.2980  -15.6610  -13.1550 O   0  0  0  0  0  0  0  0  0  0  0  0
  1  4  2  0  0  0  0
  1  5  2  0  0  0  0
  1  6  1  0  0  0  0
  2  6  1  0  0  0  0
  2  3  1  0  0  0  0
  2  7  2  0  0  0  0
  3  9  2  0  0  0  0
  3  8  1  0  0  0  0
  5  9  1  0  0  0  0
  9 10  1  0  0  0  0
 10 11  2  0  0  0  0
 10 12  1  0  0  0  0
M  END
>  <MODEL>
      19

>  <COMPND>
    UNNAMED

>  <AUTHOR>
    GENERATED BY OPEN BABEL 2.4.90

>  <MASTER>
        0    0    0    0    0    0    0    0   12    0   12    0

