__3w2k_A_rec_3w2k_kro_lig_min.pdb
 OpenBabel10201911513D

 21 22  0  0  0  0  0  0  0  0999 V2000
    5.7340  -13.5940  -14.2760 C   0  0  0  0  0  0  0  0  0  0  0  0
    5.4110  -12.7360  -15.3980 N   0  0  0  0  0  0  0  0  0  0  0  0
    5.7340  -11.3840  -15.3500 C   0  0  0  0  0  0  0  0  0  0  0  0
    5.4930  -10.6450  -16.3160 O   0  0  0  0  0  0  0  0  0  0  0  0
    6.4270  -10.9420  -14.1940 N   0  0  0  0  0  0  0  0  0  0  0  0
    6.7060  -11.7670  -13.0760 C   0  0  0  0  0  0  0  0  0  0  0  0
    7.2710  -11.2430  -12.0720 O   0  0  0  0  0  0  0  0  0  0  0  0
    6.2640  -13.0740  -13.1440 C   0  0  0  0  0  0  0  0  0  0  0  0
    5.9790  -15.9670  -14.6610 O   0  0  0  0  0  0  0  0  0  0  0  0
    5.1810  -15.0290  -14.4450 C   0  0  0  0  0  0  0  0  0  0  0  0
    3.9540  -15.1260  -14.4370 O   0  0  0  0  0  0  0  0  0  0  0  0
    6.4960  -13.9390  -12.0490 C   0  0  0  0  0  0  0  0  0  0  0  0
    5.6620  -13.4470  -10.7920 C   0  0  0  0  0  0  0  0  0  0  0  0
    4.5430  -14.0480  -10.7980 C   0  0  0  0  0  0  0  0  0  0  0  0
    4.6410  -15.3390  -10.2950 C   0  0  0  0  0  0  0  0  0  0  0  0
    3.5880  -16.1700  -10.3180 C   0  0  0  0  0  0  0  0  0  0  0  0
    3.7220  -17.4790   -9.7270 C   0  0  0  0  0  0  0  0  0  0  0  0
    2.3590  -15.6700  -10.8200 C   0  0  0  0  0  0  0  0  0  0  0  0
    1.2930  -16.4970  -10.8020 F   0  0  0  0  0  0  0  0  0  0  0  0
    2.2040  -14.3730  -11.3450 C   0  0  0  0  0  0  0  0  0  0  0  0
    3.3430  -13.5280  -11.3320 C   0  0  0  0  0  0  0  0  0  0  0  0
  1  2  1  0  0  0  0
  1 10  1  0  0  0  0
  1  8  2  0  0  0  0
  2  3  2  0  0  0  0
  3  4  2  0  0  0  0
  3  5  1  0  0  0  0
  5  6  1  0  0  0  0
  6  8  1  0  0  0  0
  6  7  2  0  0  0  0
  8 12  1  0  0  0  0
  9 10  2  0  0  0  0
 10 11  1  0  0  0  0
 12 13  1  0  0  0  0
 13 14  1  0  0  0  0
 14 21  2  0  0  0  0
 14 15  1  0  0  0  0
 15 16  2  0  0  0  0
 16 18  1  0  0  0  0
 16 17  1  0  0  0  0
 18 20  2  0  0  0  0
 18 19  1  0  0  0  0
 20 21  1  0  0  0  0
M  END
>  <COMPND>
    UNNAMED

>  <AUTHOR>
    GENERATED BY OPEN BABEL 2.4.90

>  <MASTER>
        0    0    0    0    0    0    0    0   21    0   21    0

