__3w2k_A_rec_2e6a_oro_lig_min.pdb
 OpenBabel10201911473D

 11 11  0  0  0  0  0  0  0  0999 V2000
    4.5440  -12.7680  -14.6980 N   0  0  0  0  0  0  0  0  0  0  0  0
    4.5690  -11.4400  -14.4950 C   0  0  0  0  0  0  0  0  0  0  0  0
    3.7440  -10.6840  -15.0770 O   0  0  0  0  0  0  0  0  0  0  0  0
    5.4970  -10.8920  -13.6630 N   0  0  0  0  0  0  0  0  0  0  0  0
    6.3770  -11.6670  -13.0060 C   0  0  0  0  0  0  0  0  0  0  0  0
    7.1970  -11.1400  -12.2410 O   0  0  0  0  0  0  0  0  0  0  0  0
    6.3640  -13.0600  -13.1660 C   0  0  0  0  0  0  0  0  0  0  0  0
    5.4320  -13.5720  -14.0750 C   0  0  0  0  0  0  0  0  0  0  0  0
    5.2950  -15.0460  -14.2170 C   0  0  0  0  0  0  0  0  0  0  0  0
    6.2050  -15.8020  -14.6170 O   0  0  0  0  0  0  0  0  0  0  0  0
    4.1940  -15.4450  -13.7790 O   0  0  0  0  0  0  0  0  0  0  0  0
  1  2  2  0  0  0  0
  1  8  1  0  0  0  0
  2  3  2  0  0  0  0
  2  4  1  0  0  0  0
  4  5  1  0  0  0  0
  5  7  1  0  0  0  0
  5  6  2  0  0  0  0
  7  8  2  0  0  0  0
  8  9  1  0  0  0  0
  9 11  2  0  0  0  0
  9 10  1  0  0  0  0
M  END
>  <COMPND>
    UNNAMED

>  <AUTHOR>
    GENERATED BY OPEN BABEL 2.4.90

>  <MASTER>
        0    0    0    0    0    0    0    0   11    0   11    0

