__3w2l_B_rec_2e6d_fum_lig_docked.pdb
 OpenBabel10201915533D

  8  7  0  0  0  0  0  0  0  0999 V2000
    5.8810  -13.2680  -14.3560 C   0  0  0  0  0  0  0  0  0  0  0  0
    6.2360  -12.8410  -13.1480 C   0  0  0  0  0  0  0  0  0  0  0  0
    5.7020  -15.6480  -14.2400 O   0  0  0  0  0  0  0  0  0  0  0  0
    5.1380  -14.5540  -14.3990 C   0  0  0  0  0  0  0  0  0  0  0  0
    3.9090  -14.4800  -14.6180 O   0  0  0  0  0  0  0  0  0  0  0  0
    6.9320  -11.5550  -12.9300 C   0  0  0  0  0  0  0  0  0  0  0  0
    7.2480  -10.9350  -13.9460 O   0  0  0  0  0  0  0  0  0  0  0  0
    7.2450  -11.1520  -11.7740 O   0  0  0  0  0  0  0  0  0  0  0  0
  1  4  1  0  0  0  0
  1  2  2  0  0  0  0
  2  6  1  0  0  0  0
  3  4  2  0  0  0  0
  4  5  1  0  0  0  0
  6  8  2  0  0  0  0
  6  7  1  0  0  0  0
M  END
>  <MODEL>
       8

>  <COMPND>
    UNNAMED

>  <AUTHOR>
    GENERATED BY OPEN BABEL 2.4.90

>  <MASTER>
        0    0    0    0    0    0    0    0    8    0    8    0

