__3w2l_B_rec_3w1l_hro_lig_min.pdb
 OpenBabel10201911363D

 12 12  0  0  1  0  0  0  0  0999 V2000
    5.9120  -13.4980  -13.9340 C   0  0  0  0  0  0  0  0  0  0  0  0
    6.5970  -12.9550  -12.8050 C   0  0  1  0  0  0  0  0  0  0  0  0
    7.4780  -13.9670  -11.5770 Cl  0  0  0  0  0  0  0  0  0  0  0  0
    6.7150  -11.5570  -12.7290 C   0  0  0  0  0  0  0  0  0  0  0  0
    7.2940  -10.9180  -11.8590 O   0  0  0  0  0  0  0  0  0  0  0  0
    6.1030  -10.7850  -13.7230 N   0  0  0  0  0  0  0  0  0  0  0  0
    5.3990  -11.3450  -14.8120 C   0  0  0  0  0  0  0  0  0  0  0  0
    4.8750  -10.5690  -15.6370 O   0  0  0  0  0  0  0  0  0  0  0  0
    5.3100  -12.6860  -14.8710 N   0  0  0  0  0  0  0  0  0  0  0  0
    4.5730  -15.1740  -13.0800 O   0  0  0  0  0  0  0  0  0  0  0  0
    5.5270  -14.8630  -13.9280 C   0  0  0  0  0  0  0  0  0  0  0  0
    6.0980  -15.7680  -14.4560 O   0  0  0  0  0  0  0  0  0  0  0  0
  1  9  2  0  0  0  0
  1 11  1  0  0  0  0
  1  2  1  0  0  0  0
  2  4  1  0  0  0  0
  2  3  1  6  0  0  0
  4  6  1  0  0  0  0
  4  5  2  0  0  0  0
  6  7  2  0  0  0  0
  7  8  2  0  0  0  0
  7  9  1  0  0  0  0
 10 11  2  0  0  0  0
 11 12  1  0  0  0  0
M  END
>  <COMPND>
    UNNAMED

>  <AUTHOR>
    GENERATED BY OPEN BABEL 2.4.90

>  <MASTER>
        0    0    0    0    0    0    0    0   12    0   12    0

