__3w2m_A_rec_2e6d_fum_lig_min.pdb
 OpenBabel10201913343D

  8  7  0  0  0  0  0  0  0  0999 V2000
    4.4190  -13.3470  -14.0070 C   0  0  0  0  0  0  0  0  0  0  0  0
    5.4130  -12.8790  -14.7540 C   0  0  0  0  0  0  0  0  0  0  0  0
    5.0350  -15.6310  -14.3430 O   0  0  0  0  0  0  0  0  0  0  0  0
    4.5210  -14.7750  -13.6070 C   0  0  0  0  0  0  0  0  0  0  0  0
    4.0490  -15.0750  -12.4890 O   0  0  0  0  0  0  0  0  0  0  0  0
    5.4870  -11.4680  -15.1900 C   0  0  0  0  0  0  0  0  0  0  0  0
    6.4940  -10.8490  -14.8420 O   0  0  0  0  0  0  0  0  0  0  0  0
    4.5430  -10.9130  -15.8200 O   0  0  0  0  0  0  0  0  0  0  0  0
  1  4  1  0  0  0  0
  1  2  2  0  0  0  0
  2  6  1  0  0  0  0
  3  4  2  0  0  0  0
  4  5  1  0  0  0  0
  6  8  2  0  0  0  0
  6  7  1  0  0  0  0
M  END
>  <COMPND>
    UNNAMED

>  <AUTHOR>
    GENERATED BY OPEN BABEL 2.4.90

>  <MASTER>
        0    0    0    0    0    0    0    0    8    0    8    0

