__3w2m_A_rec_3w7c_w7c_lig_min.pdb
 OpenBabel10201912113D

 25 27  0  0  0  0  0  0  0  0999 V2000
    6.7320  -13.8240  -12.3410 C   0  0  0  0  0  0  0  0  0  0  0  0
    5.8220  -13.5210  -14.5240 C   0  0  0  0  0  0  0  0  0  0  0  0
    5.4970  -12.6970  -15.6540 N   0  0  0  0  0  0  0  0  0  0  0  0
    5.9930  -11.3990  -15.6830 C   0  0  0  0  0  0  0  0  0  0  0  0
    5.7200  -10.6600  -16.6260 O   0  0  0  0  0  0  0  0  0  0  0  0
    6.7280  -10.9290  -14.6260 N   0  0  0  0  0  0  0  0  0  0  0  0
    6.9970  -11.7040  -13.4570 C   0  0  0  0  0  0  0  0  0  0  0  0
    7.6850  -11.1830  -12.5820 O   0  0  0  0  0  0  0  0  0  0  0  0
    6.5420  -13.0100  -13.4230 C   0  0  0  0  0  0  0  0  0  0  0  0
    5.8650  -15.8900  -14.6490 O   0  0  0  0  0  0  0  0  0  0  0  0
    5.2130  -14.8240  -14.5840 C   0  0  0  0  0  0  0  0  0  0  0  0
    3.9830  -14.8350  -14.6780 O   0  0  0  0  0  0  0  0  0  0  0  0
    5.9930  -13.2880  -11.0610 C   0  0  0  0  0  0  0  0  0  0  0  0
    4.7970  -14.0750  -10.9020 C   0  0  0  0  0  0  0  0  0  0  0  0
    4.7390  -15.3810  -10.4260 C   0  0  0  0  0  0  0  0  0  0  0  0
    3.5910  -13.4830  -11.2940 C   0  0  0  0  0  0  0  0  0  0  0  0
    2.3890  -14.1400  -11.2370 C   0  0  0  0  0  0  0  0  0  0  0  0
    2.3230  -15.4460  -10.8030 C   0  0  0  0  0  0  0  0  0  0  0  0
    3.4950  -16.0560  -10.3140 C   0  0  0  0  0  0  0  0  0  0  0  0
    3.3770  -17.3710   -9.8610 C   0  0  0  0  0  0  0  0  0  0  0  0
    2.1470  -18.0300   -9.8740 C   0  0  0  0  0  0  0  0  0  0  0  0
    0.9760  -17.3900  -10.2840 C   0  0  0  0  0  0  0  0  0  0  0  0
    1.0710  -16.0860  -10.7480 C   0  0  0  0  0  0  0  0  0  0  0  0
    0.0060  -15.2860  -11.1600 O   0  0  0  0  0  0  0  0  0  0  0  0
   -1.2910  -15.7440  -10.9270 C   0  0  0  0  0  0  0  0  0  0  0  0
  1  9  1  0  0  0  0
  1 13  1  0  0  0  0
  2  3  1  0  0  0  0
  2 11  1  0  0  0  0
  2  9  2  0  0  0  0
  3  4  2  0  0  0  0
  4  5  2  0  0  0  0
  4  6  1  0  0  0  0
  6  7  1  0  0  0  0
  7  9  1  0  0  0  0
  7  8  2  0  0  0  0
 10 11  2  0  0  0  0
 11 12  1  0  0  0  0
 13 14  1  0  0  0  0
 14 16  2  0  0  0  0
 14 15  1  0  0  0  0
 15 19  2  0  0  0  0
 16 17  1  0  0  0  0
 17 18  2  0  0  0  0
 18 23  1  0  0  0  0
 18 19  1  0  0  0  0
 19 20  1  0  0  0  0
 20 21  2  0  0  0  0
 21 22  1  0  0  0  0
 22 23  2  0  0  0  0
 23 24  1  0  0  0  0
 24 25  1  0  0  0  0
M  END
>  <COMPND>
    UNNAMED

>  <AUTHOR>
    GENERATED BY OPEN BABEL 2.4.90

>  <MASTER>
        0    0    0    0    0    0    0    0   25    0   25    0

