__3w2m_A_rec_2e6a_oro_lig_min.pdb
 OpenBabel10201914543D

 11 11  0  0  0  0  0  0  0  0999 V2000
    4.6410  -12.5730  -14.7750 N   0  0  0  0  0  0  0  0  0  0  0  0
    4.1880  -11.3100  -14.8370 C   0  0  0  0  0  0  0  0  0  0  0  0
    3.4580  -10.9330  -15.7950 O   0  0  0  0  0  0  0  0  0  0  0  0
    4.5230  -10.4140  -13.8680 N   0  0  0  0  0  0  0  0  0  0  0  0
    5.2780  -10.7830  -12.8200 C   0  0  0  0  0  0  0  0  0  0  0  0
    5.5490   -9.9500  -11.9440 O   0  0  0  0  0  0  0  0  0  0  0  0
    5.7450  -12.1000  -12.7020 C   0  0  0  0  0  0  0  0  0  0  0  0
    5.4250  -12.9690  -13.7500 C   0  0  0  0  0  0  0  0  0  0  0  0
    5.8010  -14.4040  -13.6400 C   0  0  0  0  0  0  0  0  0  0  0  0
    6.9740  -14.8290  -13.6870 O   0  0  0  0  0  0  0  0  0  0  0  0
    4.8060  -15.1160  -13.3840 O   0  0  0  0  0  0  0  0  0  0  0  0
  1  2  2  0  0  0  0
  1  8  1  0  0  0  0
  2  3  2  0  0  0  0
  2  4  1  0  0  0  0
  4  5  1  0  0  0  0
  5  7  1  0  0  0  0
  5  6  2  0  0  0  0
  7  8  2  0  0  0  0
  8  9  1  0  0  0  0
  9 11  2  0  0  0  0
  9 10  1  0  0  0  0
M  END
>  <COMPND>
    UNNAMED

>  <AUTHOR>
    GENERATED BY OPEN BABEL 2.4.90

>  <MASTER>
        0    0    0    0    0    0    0    0   11    0   11    0

