__3w2n_A_rec_2e6f_oxc_lig_min.pdb
 OpenBabel10201912333D

 11 11  0  0  0  0  0  0  0  0999 V2000
    5.5770  -11.2300  -12.8790 N   0  0  0  0  0  4  0  0  0  0  0  0
    4.8340  -11.3730  -14.0060 C   0  0  0  0  0  0  0  0  0  0  0  0
    4.2710  -10.3740  -14.5180 O   0  0  0  0  0  0  0  0  0  0  0  0
    4.7170  -12.5940  -14.5660 N   0  0  0  0  0  0  0  0  0  0  0  0
    5.3440  -13.6410  -13.9760 C   0  0  0  0  0  0  0  0  0  0  0  0
    6.0750  -13.5120  -12.8450 N   0  0  0  0  0  0  0  0  0  0  0  0
    6.2000  -12.2850  -12.2900 C   0  0  0  0  0  0  0  0  0  0  0  0
    6.8650  -12.1250  -11.2440 O   0  0  0  0  0  0  0  0  0  0  0  0
    5.1500  -15.0080  -14.5330 C   0  0  0  0  0  0  0  0  0  0  0  0
    6.0980  -15.7390  -14.8910 O   0  0  0  0  0  0  0  0  0  0  0  0
    3.9460  -15.3630  -14.5510 O   0  0  0  0  0  0  0  0  0  0  0  0
  1  2  2  0  0  0  0
  1  7  2  0  0  0  0
  2  3  2  0  0  0  0
  2  4  1  0  0  0  0
  4  5  2  0  0  0  0
  5  9  1  0  0  0  0
  5  6  1  0  0  0  0
  6  7  1  0  0  0  0
  7  8  2  0  0  0  0
  9 10  2  0  0  0  0
  9 11  1  0  0  0  0
M  END
>  <COMPND>
    UNNAMED

>  <AUTHOR>
    GENERATED BY OPEN BABEL 2.4.90

>  <MASTER>
        0    0    0    0    0    0    0    0   11    0   11    0

