__3w2u_A_rec_3w1p_ero_lig_docked.pdb
 OpenBabel10201916543D

 13 13  0  0  0  0  0  0  0  0999 V2000
    5.7670  -13.8580  -14.0820 C   0  0  0  0  0  0  0  0  0  0  0  0
    5.3220  -13.0690  -15.1010 N   0  0  0  0  0  0  0  0  0  0  0  0
    5.5850  -11.7070  -15.0830 C   0  0  0  0  0  0  0  0  0  0  0  0
    5.2260  -10.9690  -16.0000 O   0  0  0  0  0  0  0  0  0  0  0  0
    6.2420  -11.1400  -14.0110 N   0  0  0  0  0  0  0  0  0  0  0  0
    6.6850  -11.9040  -12.9400 C   0  0  0  0  0  0  0  0  0  0  0  0
    7.2360  -11.3100  -12.0280 O   0  0  0  0  0  0  0  0  0  0  0  0
    6.4160  -13.2830  -12.9510 C   0  0  0  0  0  0  0  0  0  0  0  0
    6.0990  -15.9640  -14.8270 O   0  0  0  0  0  0  0  0  0  0  0  0
    5.3630  -15.1900  -14.1280 C   0  0  0  0  0  0  0  0  0  0  0  0
    4.2840  -15.5690  -13.7240 O   0  0  0  0  0  0  0  0  0  0  0  0
    6.7980  -14.1200  -11.8740 C   0  0  0  0  0  0  0  0  0  0  0  0
    5.9800  -14.2390  -10.6660 C   0  0  0  0  0  0  0  0  0  0  0  0
  1  2  1  0  0  0  0
  1 10  1  0  0  0  0
  1  8  2  0  0  0  0
  2  3  2  0  0  0  0
  3  4  2  0  0  0  0
  3  5  1  0  0  0  0
  5  6  1  0  0  0  0
  6  8  1  0  0  0  0
  6  7  2  0  0  0  0
  8 12  1  0  0  0  0
  9 10  2  0  0  0  0
 10 11  1  0  0  0  0
 12 13  1  0  0  0  0
M  END
>  <MODEL>
       3

>  <COMPND>
    UNNAMED

>  <AUTHOR>
    GENERATED BY OPEN BABEL 2.4.90

>  <MASTER>
        0    0    0    0    0    0    0    0   13    0   13    0

