__3w2u_A_rec_3w1m_rro_lig_min.pdb
 OpenBabel10201913503D

 12 12  0  0  1  0  0  0  0  0999 V2000
    5.2610  -13.6740  -13.9570 C   0  0  0  0  0  0  0  0  0  0  0  0
    6.1060  -13.0670  -12.9930 C   0  0  1  0  0  0  0  0  0  0  0  0
    7.4290  -14.0560  -12.1390 Br  0  0  0  0  0  0  0  0  0  0  0  0
    6.0790  -11.6870  -12.7750 C   0  0  0  0  0  0  0  0  0  0  0  0
    6.7710  -11.1170  -11.9490 O   0  0  0  0  0  0  0  0  0  0  0  0
    5.1270  -10.9420  -13.4890 N   0  0  0  0  0  0  0  0  0  0  0  0
    4.2240  -11.5280  -14.3670 C   0  0  0  0  0  0  0  0  0  0  0  0
    3.4030  -10.8250  -14.9820 O   0  0  0  0  0  0  0  0  0  0  0  0
    4.3140  -12.8980  -14.5780 N   0  0  0  0  0  0  0  0  0  0  0  0
    4.2910  -15.6260  -13.3000 O   0  0  0  0  0  0  0  0  0  0  0  0
    5.1360  -15.0620  -14.1140 C   0  0  0  0  0  0  0  0  0  0  0  0
    5.9000  -15.7820  -14.7550 O   0  0  0  0  0  0  0  0  0  0  0  0
  1  9  2  0  0  0  0
  1 11  1  0  0  0  0
  1  2  1  0  0  0  0
  2  4  1  0  0  0  0
  2  3  1  6  0  0  0
  4  6  1  0  0  0  0
  4  5  2  0  0  0  0
  6  7  2  0  0  0  0
  7  8  2  0  0  0  0
  7  9  1  0  0  0  0
 10 11  2  0  0  0  0
 11 12  1  0  0  0  0
M  END
>  <COMPND>
    UNNAMED

>  <AUTHOR>
    GENERATED BY OPEN BABEL 2.4.90

>  <MASTER>
        0    0    0    0    0    0    0    0   12    0   12    0

