__3w2u_A_rec_3w7d_w7d_lig_docked.pdb
 OpenBabel10201916543D

 25 27  0  0  0  0  0  0  0  0999 V2000
    6.7800  -14.2200  -12.0450 C   0  0  0  0  0  0  0  0  0  0  0  0
    5.8310  -13.8930  -14.3250 C   0  0  0  0  0  0  0  0  0  0  0  0
    5.3980  -13.0430  -15.3880 N   0  0  0  0  0  0  0  0  0  0  0  0
    5.6830  -11.7250  -15.3780 C   0  0  0  0  0  0  0  0  0  0  0  0
    5.3370  -10.9620  -16.2940 O   0  0  0  0  0  0  0  0  0  0  0  0
    6.3530  -11.2270  -14.2990 N   0  0  0  0  0  0  0  0  0  0  0  0
    6.7980  -11.9600  -13.1790 C   0  0  0  0  0  0  0  0  0  0  0  0
    7.4620  -11.4720  -12.2560 O   0  0  0  0  0  0  0  0  0  0  0  0
    6.5330  -13.3460  -13.2240 C   0  0  0  0  0  0  0  0  0  0  0  0
    4.1420  -15.4730  -13.9340 O   0  0  0  0  0  0  0  0  0  0  0  0
    5.2840  -15.3090  -14.4290 C   0  0  0  0  0  0  0  0  0  0  0  0
    6.0590  -16.1430  -14.8820 O   0  0  0  0  0  0  0  0  0  0  0  0
    6.0660  -13.7340  -10.7440 C   0  0  0  0  0  0  0  0  0  0  0  0
    4.7230  -14.1160  -10.7990 C   0  0  0  0  0  0  0  0  0  0  0  0
    4.2140  -15.4090  -10.4320 C   0  0  0  0  0  0  0  0  0  0  0  0
    2.7910  -15.7460  -10.5660 C   0  0  0  0  0  0  0  0  0  0  0  0
    3.7690  -13.1590  -11.2350 C   0  0  0  0  0  0  0  0  0  0  0  0
    2.4060  -13.5330  -11.4120 C   0  0  0  0  0  0  0  0  0  0  0  0
    1.9180  -14.7710  -11.0640 C   0  0  0  0  0  0  0  0  0  0  0  0
    0.4990  -15.0470  -11.2350 C   0  0  0  0  0  0  0  0  0  0  0  0
    0.1280  -16.3180  -10.8570 C   0  0  0  0  0  0  0  0  0  0  0  0
    0.9610  -17.3120  -10.3560 C   0  0  0  0  0  0  0  0  0  0  0  0
    2.3540  -17.0110  -10.1520 C   0  0  0  0  0  0  0  0  0  0  0  0
    3.2930  -17.8380   -9.7310 O   0  0  0  0  0  0  0  0  0  0  0  0
    3.2240  -18.1800   -8.3070 C   0  0  0  0  0  0  0  0  0  0  0  0
  1  9  1  0  0  0  0
  1 13  1  0  0  0  0
  2  3  1  0  0  0  0
  2 11  1  0  0  0  0
  2  9  2  0  0  0  0
  3  4  2  0  0  0  0
  4  5  2  0  0  0  0
  4  6  1  0  0  0  0
  6  7  1  0  0  0  0
  7  9  1  0  0  0  0
  7  8  2  0  0  0  0
 10 11  2  0  0  0  0
 11 12  1  0  0  0  0
 13 14  1  0  0  0  0
 14 17  2  0  0  0  0
 14 15  1  0  0  0  0
 15 16  2  0  0  0  0
 16 19  1  0  0  0  0
 16 23  1  0  0  0  0
 17 18  1  0  0  0  0
 18 19  2  0  0  0  0
 19 20  1  0  0  0  0
 20 21  2  0  0  0  0
 21 22  1  0  0  0  0
 22 23  2  0  0  0  0
 23 24  1  0  0  0  0
 24 25  1  0  0  0  0
M  END
>  <MODEL>
       8

>  <COMPND>
    UNNAMED

>  <AUTHOR>
    GENERATED BY OPEN BABEL 2.4.90

>  <MASTER>
        0    0    0    0    0    0    0    0   25    0   25    0

