__3w2u_A_rec_3w7i_w7i_lig_min.pdb
 OpenBabel10201913593D

 25 27  0  0  0  0  0  0  0  0999 V2000
    6.7890  -13.9410  -12.2580 C   0  0  0  0  0  0  0  0  0  0  0  0
    5.9770  -13.6530  -14.5220 C   0  0  0  0  0  0  0  0  0  0  0  0
    5.7900  -12.8680  -15.6940 N   0  0  0  0  0  0  0  0  0  0  0  0
    6.2850  -11.5940  -15.7610 C   0  0  0  0  0  0  0  0  0  0  0  0
    6.0620  -10.8920  -16.7450 O   0  0  0  0  0  0  0  0  0  0  0  0
    6.9770  -11.1710  -14.7010 N   0  0  0  0  0  0  0  0  0  0  0  0
    7.2050  -11.8820  -13.4930 C   0  0  0  0  0  0  0  0  0  0  0  0
    7.8610  -11.3960  -12.5650 O   0  0  0  0  0  0  0  0  0  0  0  0
    6.6530  -13.1690  -13.4360 C   0  0  0  0  0  0  0  0  0  0  0  0
    4.1210  -15.0020  -14.4510 O   0  0  0  0  0  0  0  0  0  0  0  0
    5.3450  -14.9990  -14.5900 C   0  0  0  0  0  0  0  0  0  0  0  0
    6.0480  -16.0450  -14.8350 O   0  0  0  0  0  0  0  0  0  0  0  0
    6.0640  -13.2850  -10.9840 C   0  0  0  0  0  0  0  0  0  0  0  0
    4.8880  -14.0170  -10.6770 C   0  0  0  0  0  0  0  0  0  0  0  0
    4.9680  -15.1720   -9.8750 C   0  0  0  0  0  0  0  0  0  0  0  0
    3.8240  -15.9580   -9.6660 C   0  0  0  0  0  0  0  0  0  0  0  0
    3.8900  -17.0790   -8.8540 C   0  0  0  0  0  0  0  0  0  0  0  0
    2.7360  -17.9050   -8.6620 C   0  0  0  0  0  0  0  0  0  0  0  0
    1.4990  -17.6180   -9.2670 C   0  0  0  0  0  0  0  0  0  0  0  0
    1.4190  -16.4710  -10.0870 C   0  0  0  0  0  0  0  0  0  0  0  0
    2.6120  -15.6640  -10.2780 C   0  0  0  0  0  0  0  0  0  0  0  0
    2.5120  -14.5490  -11.0840 C   0  0  0  0  0  0  0  0  0  0  0  0
    3.6590  -13.7630  -11.3200 C   0  0  0  0  0  0  0  0  0  0  0  0
    3.5050  -12.6480  -12.0600 O   0  0  0  0  0  0  0  0  0  0  0  0
    2.4750  -11.7960  -11.3410 C   0  0  0  0  0  0  0  0  0  0  0  0
  1  9  1  0  0  0  0
  1 13  1  0  0  0  0
  2  3  1  0  0  0  0
  2 11  1  0  0  0  0
  2  9  2  0  0  0  0
  3  4  2  0  0  0  0
  4  5  2  0  0  0  0
  4  6  1  0  0  0  0
  6  7  1  0  0  0  0
  7  9  1  0  0  0  0
  7  8  2  0  0  0  0
 10 11  2  0  0  0  0
 11 12  1  0  0  0  0
 13 14  1  0  0  0  0
 14 23  2  0  0  0  0
 14 15  1  0  0  0  0
 15 16  2  0  0  0  0
 16 21  1  0  0  0  0
 16 17  1  0  0  0  0
 17 18  2  0  0  0  0
 18 19  1  0  0  0  0
 19 20  2  0  0  0  0
 20 21  1  0  0  0  0
 21 22  2  0  0  0  0
 22 23  1  0  0  0  0
 23 24  1  0  0  0  0
 24 25  1  0  0  0  0
M  END
>  <COMPND>
    UNNAMED

>  <AUTHOR>
    GENERATED BY OPEN BABEL 2.4.90

>  <MASTER>
        0    0    0    0    0    0    0    0   25    0   25    0

