__3w2u_A_rec_3w7i_w7i_lig_docked.pdb
 OpenBabel10201916543D

 25 27  0  0  0  0  0  0  0  0999 V2000
    6.8930  -14.0730  -12.0870 C   0  0  0  0  0  0  0  0  0  0  0  0
    5.8190  -13.8160  -14.2430 C   0  0  0  0  0  0  0  0  0  0  0  0
    5.4400  -13.0290  -15.3660 N   0  0  0  0  0  0  0  0  0  0  0  0
    5.8130  -11.7150  -15.4480 C   0  0  0  0  0  0  0  0  0  0  0  0
    5.4240  -11.0180  -16.3830 O   0  0  0  0  0  0  0  0  0  0  0  0
    6.5760  -11.2520  -14.4560 N   0  0  0  0  0  0  0  0  0  0  0  0
    6.9930  -11.9630  -13.3000 C   0  0  0  0  0  0  0  0  0  0  0  0
    7.7010  -11.4380  -12.4340 O   0  0  0  0  0  0  0  0  0  0  0  0
    6.5650  -13.2950  -13.2220 C   0  0  0  0  0  0  0  0  0  0  0  0
    6.0550  -16.0260  -14.8170 O   0  0  0  0  0  0  0  0  0  0  0  0
    5.3020  -15.2110  -14.2810 C   0  0  0  0  0  0  0  0  0  0  0  0
    4.1800  -15.5130  -13.7340 O   0  0  0  0  0  0  0  0  0  0  0  0
    6.2350  -13.5240  -10.7290 C   0  0  0  0  0  0  0  0  0  0  0  0
    4.9150  -14.0300  -10.6020 C   0  0  0  0  0  0  0  0  0  0  0  0
    4.7090  -15.3670  -10.2120 C   0  0  0  0  0  0  0  0  0  0  0  0
    3.4100  -15.8980  -10.1970 C   0  0  0  0  0  0  0  0  0  0  0  0
    3.1990  -17.2050   -9.7850 C   0  0  0  0  0  0  0  0  0  0  0  0
    1.8810  -17.7660   -9.7980 C   0  0  0  0  0  0  0  0  0  0  0  0
    0.7560  -17.0280  -10.2100 C   0  0  0  0  0  0  0  0  0  0  0  0
    0.9610  -15.6910  -10.6190 C   0  0  0  0  0  0  0  0  0  0  0  0
    2.3110  -15.1580  -10.6140 C   0  0  0  0  0  0  0  0  0  0  0  0
    2.4890  -13.8510  -11.0190 C   0  0  0  0  0  0  0  0  0  0  0  0
    3.7910  -13.3120  -11.0610 C   0  0  0  0  0  0  0  0  0  0  0  0
    3.9150  -12.0140  -11.4000 O   0  0  0  0  0  0  0  0  0  0  0  0
    3.0880  -11.8210  -12.6590 C   0  0  0  0  0  0  0  0  0  0  0  0
  1  9  1  0  0  0  0
  1 13  1  0  0  0  0
  2  3  1  0  0  0  0
  2 11  1  0  0  0  0
  2  9  2  0  0  0  0
  3  4  2  0  0  0  0
  4  5  2  0  0  0  0
  4  6  1  0  0  0  0
  6  7  1  0  0  0  0
  7  9  1  0  0  0  0
  7  8  2  0  0  0  0
 10 11  2  0  0  0  0
 11 12  1  0  0  0  0
 13 14  1  0  0  0  0
 14 23  2  0  0  0  0
 14 15  1  0  0  0  0
 15 16  2  0  0  0  0
 16 21  1  0  0  0  0
 16 17  1  0  0  0  0
 17 18  2  0  0  0  0
 18 19  1  0  0  0  0
 19 20  2  0  0  0  0
 20 21  1  0  0  0  0
 21 22  2  0  0  0  0
 22 23  1  0  0  0  0
 23 24  1  0  0  0  0
 24 25  1  0  0  0  0
M  END
>  <MODEL>
       3

>  <COMPND>
    UNNAMED

>  <AUTHOR>
    GENERATED BY OPEN BABEL 2.4.90

>  <MASTER>
        0    0    0    0    0    0    0    0   25    0   25    0

