__3w2u_A_rec_3w3o_roe_lig_min.pdb
 OpenBabel10201912403D

 25 27  0  0  0  0  0  0  0  0999 V2000
    6.4300  -14.1710  -12.1480 C   0  0  0  0  0  0  0  0  0  0  0  0
    5.8030  -13.7900  -14.4710 C   0  0  0  0  0  0  0  0  0  0  0  0
    5.6280  -12.9020  -15.5880 N   0  0  0  0  0  0  0  0  0  0  0  0
    6.0460  -11.5700  -15.5430 C   0  0  0  0  0  0  0  0  0  0  0  0
    5.8620  -10.8020  -16.5020 O   0  0  0  0  0  0  0  0  0  0  0  0
    6.6200  -11.1290  -14.3580 N   0  0  0  0  0  0  0  0  0  0  0  0
    6.7790  -11.9470  -13.1860 C   0  0  0  0  0  0  0  0  0  0  0  0
    7.3290  -11.4380  -12.1760 O   0  0  0  0  0  0  0  0  0  0  0  0
    6.3470  -13.3220  -13.2580 C   0  0  0  0  0  0  0  0  0  0  0  0
    4.0130  -15.2360  -14.7200 O   0  0  0  0  0  0  0  0  0  0  0  0
    5.2810  -15.1140  -14.6760 C   0  0  0  0  0  0  0  0  0  0  0  0
    6.0430  -16.1180  -14.7970 O   0  0  0  0  0  0  0  0  0  0  0  0
    5.4290  -13.5970  -11.0040 C   0  0  0  0  0  0  0  0  0  0  0  0
    4.2550  -14.5030  -10.9590 C   0  0  0  0  0  0  0  0  0  0  0  0
    3.0740  -14.3290  -11.6990 C   0  0  0  0  0  0  0  0  0  0  0  0
    2.0730  -15.3250  -11.5350 C   0  0  0  0  0  0  0  0  0  0  0  0
    0.9410  -15.1920  -12.2750 C   0  0  0  0  0  0  0  0  0  0  0  0
   -0.0380  -16.1310  -12.1770 C   0  0  0  0  0  0  0  0  0  0  0  0
    0.0080  -17.2220  -11.3380 C   0  0  0  0  0  0  0  0  0  0  0  0
    1.1270  -17.4230  -10.5740 C   0  0  0  0  0  0  0  0  0  0  0  0
    2.1310  -16.4450  -10.6970 C   0  0  0  0  0  0  0  0  0  0  0  0
    3.2490  -16.5980   -9.9450 C   0  0  0  0  0  0  0  0  0  0  0  0
    4.2670  -15.6270  -10.1330 C   0  0  0  0  0  0  0  0  0  0  0  0
   -1.0600  -18.0920  -11.2950 O   0  0  0  0  0  0  0  0  0  0  0  0
   -2.2910  -17.4870  -11.6000 C   0  0  0  0  0  0  0  0  0  0  0  0
  1  9  1  0  0  0  0
  1 13  1  0  0  0  0
  2  3  1  0  0  0  0
  2 11  1  0  0  0  0
  2  9  2  0  0  0  0
  3  4  2  0  0  0  0
  4  5  2  0  0  0  0
  4  6  1  0  0  0  0
  6  7  1  0  0  0  0
  7  9  1  0  0  0  0
  7  8  2  0  0  0  0
 10 11  2  0  0  0  0
 11 12  1  0  0  0  0
 13 14  1  0  0  0  0
 14 15  2  0  0  0  0
 14 23  1  0  0  0  0
 15 16  1  0  0  0  0
 16 17  2  0  0  0  0
 16 21  1  0  0  0  0
 17 18  1  0  0  0  0
 18 19  2  0  0  0  0
 19 24  1  0  0  0  0
 19 20  1  0  0  0  0
 20 21  2  0  0  0  0
 21 22  1  0  0  0  0
 22 23  2  0  0  0  0
 24 25  1  0  0  0  0
M  END
>  <COMPND>
    UNNAMED

>  <AUTHOR>
    GENERATED BY OPEN BABEL 2.4.90

>  <MASTER>
        0    0    0    0    0    0    0    0   25    0   25    0

