__3w2u_A_rec_3w2m_zro_lig_docked.pdb
 OpenBabel10201916533D

 23 24  0  0  0  0  0  0  0  0999 V2000
    5.9810  -13.7010  -14.7530 C   0  0  0  0  0  0  0  0  0  0  0  0
    5.8560  -12.8390  -15.8290 N   0  0  0  0  0  0  0  0  0  0  0  0
    6.4590  -11.6090  -15.8610 C   0  0  0  0  0  0  0  0  0  0  0  0
    6.2490  -10.7860  -16.8060 O   0  0  0  0  0  0  0  0  0  0  0  0
    7.2220  -11.2280  -14.8050 N   0  0  0  0  0  0  0  0  0  0  0  0
    7.3680  -12.0490  -13.6710 C   0  0  0  0  0  0  0  0  0  0  0  0
    8.1310  -11.6800  -12.7600 O   0  0  0  0  0  0  0  0  0  0  0  0
    6.6780  -13.2950  -13.6690 C   0  0  0  0  0  0  0  0  0  0  0  0
    3.9670  -14.9480  -15.0530 O   0  0  0  0  0  0  0  0  0  0  0  0
    5.1780  -15.0080  -14.8760 C   0  0  0  0  0  0  0  0  0  0  0  0
    5.8820  -15.9870  -14.8860 O   0  0  0  0  0  0  0  0  0  0  0  0
    6.8750  -14.1210  -12.5410 C   0  0  0  0  0  0  0  0  0  0  0  0
    6.0030  -13.6230  -11.2990 C   0  0  0  0  0  0  0  0  0  0  0  0
    4.6670  -13.9910  -11.4750 C   0  0  0  0  0  0  0  0  0  0  0  0
    4.2340  -15.3030  -11.4320 C   0  0  0  0  0  0  0  0  0  0  0  0
    2.8850  -15.6740  -11.6630 C   0  0  0  0  0  0  0  0  0  0  0  0
    1.9340  -14.7300  -12.1310 C   0  0  0  0  0  0  0  0  0  0  0  0
    2.3820  -13.3910  -12.2300 C   0  0  0  0  0  0  0  0  0  0  0  0
    3.7060  -13.0290  -11.8610 C   0  0  0  0  0  0  0  0  0  0  0  0
    0.5500  -15.0870  -12.5310 C   0  0  0  0  0  0  0  0  0  0  0  0
    0.4720  -15.9240  -13.5680 F   0  0  0  0  0  0  0  0  0  0  0  0
   -0.1790  -15.5490  -11.4640 F   0  0  0  0  0  0  0  0  0  0  0  0
   -0.0660  -13.8490  -13.1950 F   0  0  0  0  0  0  0  0  0  0  0  0
  1  2  1  0  0  0  0
  1 10  1  0  0  0  0
  1  8  2  0  0  0  0
  2  3  2  0  0  0  0
  3  4  2  0  0  0  0
  3  5  1  0  0  0  0
  5  6  1  0  0  0  0
  6  8  1  0  0  0  0
  6  7  2  0  0  0  0
  8 12  1  0  0  0  0
  9 10  2  0  0  0  0
 10 11  1  0  0  0  0
 12 13  1  0  0  0  0
 13 14  1  0  0  0  0
 14 19  2  0  0  0  0
 14 15  1  0  0  0  0
 15 16  2  0  0  0  0
 16 17  1  0  0  0  0
 17 18  2  0  0  0  0
 17 20  1  0  0  0  0
 18 19  1  0  0  0  0
 20 23  1  0  0  0  0
 20 22  1  0  0  0  0
 20 21  1  0  0  0  0
M  END
>  <MODEL>
      14

>  <COMPND>
    UNNAMED

>  <AUTHOR>
    GENERATED BY OPEN BABEL 2.4.90

>  <MASTER>
        0    0    0    0    0    0    0    0   23    0   23    0

