__3w3o_A_rec_2e68_dor_lig_min.pdb
 OpenBabel10201915173D

 11 11  0  0  1  0  0  0  0  0999 V2000
    5.4950  -10.5820  -16.3160 O   0  0  0  0  0  0  0  0  0  0  0  0
    5.8030  -11.3870  -15.4340 C   0  0  0  0  0  0  0  0  0  0  0  0
    5.6150  -12.7000  -15.6080 N   0  0  0  0  0  0  0  0  0  0  0  0
    6.3210  -10.9460  -14.2770 N   0  0  0  0  0  0  0  0  0  0  0  0
    6.5930  -11.7100  -13.2120 C   0  0  0  0  0  0  0  0  0  0  0  0
    7.0920  -11.2650  -12.1880 O   0  0  0  0  0  0  0  0  0  0  0  0
    6.2640  -13.1740  -13.2820 C   0  0  0  0  0  0  0  0  0  0  0  0
    6.2000  -13.6980  -14.7120 C   0  0  1  0  0  0  0  0  0  0  0  0
    5.4540  -14.9960  -14.6660 C   0  0  0  0  0  0  0  0  0  0  0  0
    4.2010  -14.9780  -14.7020 O   0  0  0  0  0  0  0  0  0  0  0  0
    6.1480  -16.0370  -14.5910 O   0  0  0  0  0  0  0  0  0  0  0  0
  1  2  2  0  0  0  0
  2  3  2  0  0  0  0
  2  4  1  0  0  0  0
  3  8  1  0  0  0  0
  4  5  1  0  0  0  0
  5  7  1  0  0  0  0
  5  6  2  0  0  0  0
  7  8  1  0  0  0  0
  8  9  1  1  0  0  0
  9 11  2  0  0  0  0
  9 10  1  0  0  0  0
M  END
>  <COMPND>
    UNNAMED

>  <AUTHOR>
    GENERATED BY OPEN BABEL 2.4.90

>  <MASTER>
        0    0    0    0    0    0    0    0   11    0   11    0

