__3w3o_A_rec_3w3o_roe_lig_min.pdb
 OpenBabel10201914043D

 25 27  0  0  0  0  0  0  0  0999 V2000
    6.4580  -13.9670  -12.0000 C   0  0  0  0  0  0  0  0  0  0  0  0
    5.7030  -13.6410  -14.2920 C   0  0  0  0  0  0  0  0  0  0  0  0
    5.4320  -12.7740  -15.4060 N   0  0  0  0  0  0  0  0  0  0  0  0
    5.7890  -11.4240  -15.3920 C   0  0  0  0  0  0  0  0  0  0  0  0
    5.5220  -10.6750  -16.3480 O   0  0  0  0  0  0  0  0  0  0  0  0
    6.3980  -10.9440  -14.2410 N   0  0  0  0  0  0  0  0  0  0  0  0
    6.6510  -11.7410  -13.0710 C   0  0  0  0  0  0  0  0  0  0  0  0
    7.2250  -11.1960  -12.0940 O   0  0  0  0  0  0  0  0  0  0  0  0
    6.2820  -13.1360  -13.1110 C   0  0  0  0  0  0  0  0  0  0  0  0
    3.9730  -15.1640  -14.5020 O   0  0  0  0  0  0  0  0  0  0  0  0
    5.2350  -14.9900  -14.4610 C   0  0  0  0  0  0  0  0  0  0  0  0
    6.0370  -15.9650  -14.5540 O   0  0  0  0  0  0  0  0  0  0  0  0
    5.4470  -13.4640  -10.8320 C   0  0  0  0  0  0  0  0  0  0  0  0
    4.3050  -14.4110  -10.8070 C   0  0  0  0  0  0  0  0  0  0  0  0
    3.0590  -14.1860  -11.4150 C   0  0  0  0  0  0  0  0  0  0  0  0
    2.1020  -15.2320  -11.2990 C   0  0  0  0  0  0  0  0  0  0  0  0
    0.9060  -15.0460  -11.9170 C   0  0  0  0  0  0  0  0  0  0  0  0
   -0.0360  -16.0250  -11.8610 C   0  0  0  0  0  0  0  0  0  0  0  0
    0.1120  -17.2120  -11.1810 C   0  0  0  0  0  0  0  0  0  0  0  0
    1.2990  -17.4700  -10.5470 C   0  0  0  0  0  0  0  0  0  0  0  0
    2.2630  -16.4480  -10.6250 C   0  0  0  0  0  0  0  0  0  0  0  0
    3.4470  -16.6550   -9.9970 C   0  0  0  0  0  0  0  0  0  0  0  0
    4.4200  -15.6300  -10.1410 C   0  0  0  0  0  0  0  0  0  0  0  0
   -0.9250  -18.1200  -11.1620 O   0  0  0  0  0  0  0  0  0  0  0  0
   -2.1870  -17.5360  -11.3620 C   0  0  0  0  0  0  0  0  0  0  0  0
  1  9  1  0  0  0  0
  1 13  1  0  0  0  0
  2  3  1  0  0  0  0
  2 11  1  0  0  0  0
  2  9  2  0  0  0  0
  3  4  2  0  0  0  0
  4  5  2  0  0  0  0
  4  6  1  0  0  0  0
  6  7  1  0  0  0  0
  7  9  1  0  0  0  0
  7  8  2  0  0  0  0
 10 11  2  0  0  0  0
 11 12  1  0  0  0  0
 13 14  1  0  0  0  0
 14 15  2  0  0  0  0
 14 23  1  0  0  0  0
 15 16  1  0  0  0  0
 16 17  2  0  0  0  0
 16 21  1  0  0  0  0
 17 18  1  0  0  0  0
 18 19  2  0  0  0  0
 19 24  1  0  0  0  0
 19 20  1  0  0  0  0
 20 21  2  0  0  0  0
 21 22  1  0  0  0  0
 22 23  2  0  0  0  0
 24 25  1  0  0  0  0
M  END
>  <COMPND>
    UNNAMED

>  <AUTHOR>
    GENERATED BY OPEN BABEL 2.4.90

>  <MASTER>
        0    0    0    0    0    0    0    0   25    0   25    0

