__3w6y_A_rec_3w7c_w7c_lig_docked.pdb
 OpenBabel10201916443D

 25 27  0  0  0  0  0  0  0  0999 V2000
    6.9300  -13.9180  -12.0070 C   0  0  0  0  0  0  0  0  0  0  0  0
    5.9240  -13.6880  -14.1560 C   0  0  0  0  0  0  0  0  0  0  0  0
    5.4970  -12.8920  -15.2730 N   0  0  0  0  0  0  0  0  0  0  0  0
    5.8890  -11.5590  -15.3150 C   0  0  0  0  0  0  0  0  0  0  0  0
    5.5270  -10.8440  -16.2470 O   0  0  0  0  0  0  0  0  0  0  0  0
    6.6210  -11.0330  -14.2840 N   0  0  0  0  0  0  0  0  0  0  0  0
    6.9890  -11.7840  -13.1260 C   0  0  0  0  0  0  0  0  0  0  0  0
    7.6650  -11.2110  -12.2740 O   0  0  0  0  0  0  0  0  0  0  0  0
    6.6400  -13.1220  -13.0790 C   0  0  0  0  0  0  0  0  0  0  0  0
    4.3150  -15.3740  -13.7100 O   0  0  0  0  0  0  0  0  0  0  0  0
    5.4160  -15.0340  -14.1980 C   0  0  0  0  0  0  0  0  0  0  0  0
    6.1860  -15.8820  -14.6550 O   0  0  0  0  0  0  0  0  0  0  0  0
    6.2440  -13.4070  -10.6870 C   0  0  0  0  0  0  0  0  0  0  0  0
    4.9570  -14.0490  -10.6030 C   0  0  0  0  0  0  0  0  0  0  0  0
    4.7310  -15.3750  -10.2480 C   0  0  0  0  0  0  0  0  0  0  0  0
    3.8400  -13.2780  -10.9410 C   0  0  0  0  0  0  0  0  0  0  0  0
    2.5640  -13.7810  -10.9450 C   0  0  0  0  0  0  0  0  0  0  0  0
    2.3310  -15.1020  -10.6320 C   0  0  0  0  0  0  0  0  0  0  0  0
    3.4110  -15.8950  -10.1990 C   0  0  0  0  0  0  0  0  0  0  0  0
    3.1240  -17.2210   -9.8670 C   0  0  0  0  0  0  0  0  0  0  0  0
    1.8220  -17.7170   -9.9430 C   0  0  0  0  0  0  0  0  0  0  0  0
    0.7450  -16.9000  -10.2930 C   0  0  0  0  0  0  0  0  0  0  0  0
    1.0080  -15.5820  -10.6380 C   0  0  0  0  0  0  0  0  0  0  0  0
    0.0570  -14.6210  -10.9760 O   0  0  0  0  0  0  0  0  0  0  0  0
   -1.0810  -14.5100  -10.1770 C   0  0  0  0  0  0  0  0  0  0  0  0
  1  9  1  0  0  0  0
  1 13  1  0  0  0  0
  2  3  1  0  0  0  0
  2 11  1  0  0  0  0
  2  9  2  0  0  0  0
  3  4  2  0  0  0  0
  4  5  2  0  0  0  0
  4  6  1  0  0  0  0
  6  7  1  0  0  0  0
  7  9  1  0  0  0  0
  7  8  2  0  0  0  0
 10 11  2  0  0  0  0
 11 12  1  0  0  0  0
 13 14  1  0  0  0  0
 14 16  2  0  0  0  0
 14 15  1  0  0  0  0
 15 19  2  0  0  0  0
 16 17  1  0  0  0  0
 17 18  2  0  0  0  0
 18 23  1  0  0  0  0
 18 19  1  0  0  0  0
 19 20  1  0  0  0  0
 20 21  2  0  0  0  0
 21 22  1  0  0  0  0
 22 23  2  0  0  0  0
 23 24  1  0  0  0  0
 24 25  1  0  0  0  0
M  END
>  <MODEL>
       7

>  <COMPND>
    UNNAMED

>  <AUTHOR>
    GENERATED BY OPEN BABEL 2.4.90

>  <MASTER>
        0    0    0    0    0    0    0    0   25    0   25    0

