__3w70_A_rec_3w22_2ro_lig_min.pdb
 OpenBabel10201914543D

 23 24  0  0  0  0  0  0  0  0999 V2000
    5.6920  -13.5770  -14.5250 C   0  0  0  0  0  0  0  0  0  0  0  0
    5.3050  -12.7020  -15.5740 N   0  0  0  0  0  0  0  0  0  0  0  0
    5.6580  -11.3420  -15.5690 C   0  0  0  0  0  0  0  0  0  0  0  0
    5.3490  -10.5750  -16.4920 O   0  0  0  0  0  0  0  0  0  0  0  0
    6.3720  -10.8670  -14.4890 N   0  0  0  0  0  0  0  0  0  0  0  0
    6.6990  -11.6840  -13.3690 C   0  0  0  0  0  0  0  0  0  0  0  0
    7.2850  -11.1170  -12.4190 O   0  0  0  0  0  0  0  0  0  0  0  0
    6.3440  -13.0720  -13.3820 C   0  0  0  0  0  0  0  0  0  0  0  0
    5.9230  -15.9240  -14.4600 O   0  0  0  0  0  0  0  0  0  0  0  0
    5.2070  -14.9220  -14.6520 C   0  0  0  0  0  0  0  0  0  0  0  0
    3.9950  -15.0600  -14.9590 O   0  0  0  0  0  0  0  0  0  0  0  0
    6.6380  -13.9320  -12.3460 C   0  0  0  0  0  0  0  0  0  0  0  0
    5.9440  -13.4260  -11.0430 C   0  0  0  0  0  0  0  0  0  0  0  0
    4.6120  -13.9510  -11.1380 C   0  0  0  0  0  0  0  0  0  0  0  0
    3.6430  -13.2130  -11.8070 C   0  0  0  0  0  0  0  0  0  0  0  0
    2.3250  -13.6780  -11.9570 C   0  0  0  0  0  0  0  0  0  0  0  0
    1.8960  -14.9190  -11.4270 C   0  0  0  0  0  0  0  0  0  0  0  0
    2.8970  -15.6630  -10.7810 C   0  0  0  0  0  0  0  0  0  0  0  0
    4.2100  -15.1800  -10.6490 C   0  0  0  0  0  0  0  0  0  0  0  0
    0.4940  -15.3010  -11.7010 C   0  0  0  0  0  0  0  0  0  0  0  0
   -0.5300  -14.1640  -11.3380 C   0  0  0  0  0  0  0  0  0  0  0  0
    0.3360  -15.5360  -13.2530 C   0  0  0  0  0  0  0  0  0  0  0  0
    0.0700  -16.6270  -10.9720 C   0  0  0  0  0  0  0  0  0  0  0  0
  1  2  1  0  0  0  0
  1 10  1  0  0  0  0
  1  8  2  0  0  0  0
  2  3  2  0  0  0  0
  3  4  2  0  0  0  0
  3  5  1  0  0  0  0
  5  6  1  0  0  0  0
  6  8  1  0  0  0  0
  6  7  2  0  0  0  0
  8 12  1  0  0  0  0
  9 10  2  0  0  0  0
 10 11  1  0  0  0  0
 12 13  1  0  0  0  0
 13 14  1  0  0  0  0
 14 15  2  0  0  0  0
 14 19  1  0  0  0  0
 15 16  1  0  0  0  0
 16 17  2  0  0  0  0
 17 20  1  0  0  0  0
 17 18  1  0  0  0  0
 18 19  2  0  0  0  0
 20 22  1  0  0  0  0
 20 21  1  0  0  0  0
 20 23  1  0  0  0  0
M  END
>  <COMPND>
    UNNAMED

>  <AUTHOR>
    GENERATED BY OPEN BABEL 2.4.90

>  <MASTER>
        0    0    0    0    0    0    0    0   23    0   23    0

