__3w70_A_rec_3w1r_mro_lig_min.pdb
 OpenBabel10201912103D

 19 20  0  0  0  0  0  0  0  0999 V2000
    5.7580  -13.6420  -14.0950 C   0  0  0  0  0  0  0  0  0  0  0  0
    5.3830  -12.9310  -15.2800 N   0  0  0  0  0  0  0  0  0  0  0  0
    5.5780  -11.5650  -15.3370 C   0  0  0  0  0  0  0  0  0  0  0  0
    5.2630  -10.8710  -16.3220 O   0  0  0  0  0  0  0  0  0  0  0  0
    6.3000  -10.9280  -14.3130 N   0  0  0  0  0  0  0  0  0  0  0  0
    6.7370  -11.6430  -13.1930 C   0  0  0  0  0  0  0  0  0  0  0  0
    7.3510  -10.9950  -12.3440 O   0  0  0  0  0  0  0  0  0  0  0  0
    6.4030  -13.0140  -13.0690 C   0  0  0  0  0  0  0  0  0  0  0  0
    6.0710  -15.8750  -14.6270 O   0  0  0  0  0  0  0  0  0  0  0  0
    5.2820  -15.0320  -14.1610 C   0  0  0  0  0  0  0  0  0  0  0  0
    4.1390  -15.2390  -13.7090 O   0  0  0  0  0  0  0  0  0  0  0  0
    6.8000  -13.8290  -11.8060 C   0  0  0  0  0  0  0  0  0  0  0  0
    6.0930  -13.2200  -10.6000 C   0  0  0  0  0  0  0  0  0  0  0  0
    4.7590  -13.6660  -10.5440 C   0  0  0  0  0  0  0  0  0  0  0  0
    3.6420  -12.8030  -10.7850 C   0  0  0  0  0  0  0  0  0  0  0  0
    2.2840  -13.2660  -10.7470 C   0  0  0  0  0  0  0  0  0  0  0  0
    2.0480  -14.5860  -10.4940 C   0  0  0  0  0  0  0  0  0  0  0  0
    3.1210  -15.4180  -10.2410 C   0  0  0  0  0  0  0  0  0  0  0  0
    4.4880  -15.0310  -10.3000 C   0  0  0  0  0  0  0  0  0  0  0  0
  1  2  1  0  0  0  0
  1 10  1  0  0  0  0
  1  8  2  0  0  0  0
  2  3  2  0  0  0  0
  3  4  2  0  0  0  0
  3  5  1  0  0  0  0
  5  6  1  0  0  0  0
  6  8  1  0  0  0  0
  6  7  2  0  0  0  0
  8 12  1  0  0  0  0
  9 10  2  0  0  0  0
 10 11  1  0  0  0  0
 12 13  1  0  0  0  0
 13 14  1  0  0  0  0
 14 15  2  0  0  0  0
 14 19  1  0  0  0  0
 15 16  1  0  0  0  0
 16 17  2  0  0  0  0
 17 18  1  0  0  0  0
 18 19  2  0  0  0  0
M  END
>  <COMPND>
    UNNAMED

>  <AUTHOR>
    GENERATED BY OPEN BABEL 2.4.90

>  <MASTER>
        0    0    0    0    0    0    0    0   19    0   19    0

