__3w70_A_rec_3w1u_lro_lig_min.pdb
 OpenBabel10201914553D

 20 21  0  0  0  0  0  0  0  0999 V2000
    5.7110  -13.6240  -14.3880 C   0  0  0  0  0  0  0  0  0  0  0  0
    5.4710  -12.8230  -15.5330 N   0  0  0  0  0  0  0  0  0  0  0  0
    5.8290  -11.4650  -15.5420 C   0  0  0  0  0  0  0  0  0  0  0  0
    5.4980  -10.7590  -16.5050 O   0  0  0  0  0  0  0  0  0  0  0  0
    6.4920  -10.9380  -14.4600 N   0  0  0  0  0  0  0  0  0  0  0  0
    6.7970  -11.7470  -13.3570 C   0  0  0  0  0  0  0  0  0  0  0  0
    7.3490  -11.1660  -12.4480 O   0  0  0  0  0  0  0  0  0  0  0  0
    6.4040  -13.1190  -13.3110 C   0  0  0  0  0  0  0  0  0  0  0  0
    3.9530  -15.1490  -14.4880 O   0  0  0  0  0  0  0  0  0  0  0  0
    5.2110  -14.9630  -14.5550 C   0  0  0  0  0  0  0  0  0  0  0  0
    6.0100  -15.9030  -14.6820 O   0  0  0  0  0  0  0  0  0  0  0  0
    6.6880  -13.9590  -12.1430 C   0  0  0  0  0  0  0  0  0  0  0  0
    5.8570  -13.4910  -10.9770 C   0  0  0  0  0  0  0  0  0  0  0  0
    4.5530  -13.9980  -11.0700 C   0  0  0  0  0  0  0  0  0  0  0  0
    4.2590  -15.3700  -10.8810 C   0  0  0  0  0  0  0  0  0  0  0  0
    2.9460  -15.8740  -11.0060 C   0  0  0  0  0  0  0  0  0  0  0  0
    1.8750  -15.0230  -11.2500 C   0  0  0  0  0  0  0  0  0  0  0  0
    0.5240  -15.4850  -11.3290 C   0  0  0  0  0  0  0  0  0  0  0  0
    2.1390  -13.6680  -11.3610 C   0  0  0  0  0  0  0  0  0  0  0  0
    3.4660  -13.1550  -11.2850 C   0  0  0  0  0  0  0  0  0  0  0  0
  1  2  1  0  0  0  0
  1 10  1  0  0  0  0
  1  8  2  0  0  0  0
  2  3  2  0  0  0  0
  3  4  2  0  0  0  0
  3  5  1  0  0  0  0
  5  6  1  0  0  0  0
  6  8  1  0  0  0  0
  6  7  2  0  0  0  0
  8 12  1  0  0  0  0
  9 10  2  0  0  0  0
 10 11  1  0  0  0  0
 12 13  1  0  0  0  0
 13 14  1  0  0  0  0
 14 15  2  0  0  0  0
 14 20  1  0  0  0  0
 15 16  1  0  0  0  0
 16 17  2  0  0  0  0
 17 18  1  0  0  0  0
 17 19  1  0  0  0  0
 19 20  2  0  0  0  0
M  END
>  <COMPND>
    UNNAMED

>  <AUTHOR>
    GENERATED BY OPEN BABEL 2.4.90

>  <MASTER>
        0    0    0    0    0    0    0    0   20    0   20    0

