__3w70_A_rec_3w72_w7b_lig_min.pdb
 OpenBabel10201913383D

 23 25  0  0  0  0  0  0  0  0999 V2000
    5.4020  -13.4940  -14.4030 C   0  0  0  0  0  0  0  0  0  0  0  0
    5.3510  -12.7380  -15.5680 N   0  0  0  0  0  0  0  0  0  0  0  0
    5.8110  -11.4310  -15.5960 C   0  0  0  0  0  0  0  0  0  0  0  0
    5.7130  -10.7280  -16.6200 O   0  0  0  0  0  0  0  0  0  0  0  0
    6.4070  -10.9460  -14.4500 N   0  0  0  0  0  0  0  0  0  0  0  0
    6.5420  -11.6730  -13.2900 C   0  0  0  0  0  0  0  0  0  0  0  0
    7.1310  -11.1880  -12.3350 O   0  0  0  0  0  0  0  0  0  0  0  0
    5.9890  -12.9980  -13.2720 C   0  0  0  0  0  0  0  0  0  0  0  0
    3.5150  -14.7550  -14.6670 O   0  0  0  0  0  0  0  0  0  0  0  0
    4.7430  -14.7980  -14.5410 C   0  0  0  0  0  0  0  0  0  0  0  0
    5.3560  -15.8380  -14.4850 O   0  0  0  0  0  0  0  0  0  0  0  0
    6.0090  -13.8010  -12.1360 C   0  0  0  0  0  0  0  0  0  0  0  0
    5.1520  -13.2250  -11.0060 C   0  0  0  0  0  0  0  0  0  0  0  0
    3.7610  -13.5590  -11.2230 C   0  0  0  0  0  0  0  0  0  0  0  0
    3.1650  -14.8020  -10.8390 C   0  0  0  0  0  0  0  0  0  0  0  0
    3.9160  -15.7790  -10.1520 C   0  0  0  0  0  0  0  0  0  0  0  0
    3.3070  -16.9990   -9.7910 C   0  0  0  0  0  0  0  0  0  0  0  0
    1.9820  -17.1700  -10.1470 C   0  0  0  0  0  0  0  0  0  0  0  0
    1.1990  -16.2290  -10.8120 C   0  0  0  0  0  0  0  0  0  0  0  0
    1.8100  -15.0310  -11.1760 C   0  0  0  0  0  0  0  0  0  0  0  0
    1.0250  -14.0860  -11.8240 C   0  0  0  0  0  0  0  0  0  0  0  0
    1.5050  -12.8830  -12.1310 C   0  0  0  0  0  0  0  0  0  0  0  0
    2.8870  -12.6770  -11.8630 C   0  0  0  0  0  0  0  0  0  0  0  0
  1  2  1  0  0  0  0
  1 10  1  0  0  0  0
  1  8  2  0  0  0  0
  2  3  2  0  0  0  0
  3  4  2  0  0  0  0
  3  5  1  0  0  0  0
  5  6  1  0  0  0  0
  6  8  1  0  0  0  0
  6  7  2  0  0  0  0
  8 12  1  0  0  0  0
  9 10  2  0  0  0  0
 10 11  1  0  0  0  0
 12 13  1  0  0  0  0
 13 14  1  0  0  0  0
 14 23  2  0  0  0  0
 14 15  1  0  0  0  0
 15 20  2  0  0  0  0
 15 16  1  0  0  0  0
 16 17  2  0  0  0  0
 17 18  1  0  0  0  0
 18 19  2  0  0  0  0
 19 20  1  0  0  0  0
 20 21  1  0  0  0  0
 21 22  2  0  0  0  0
 22 23  1  0  0  0  0
M  END
>  <COMPND>
    UNNAMED

>  <AUTHOR>
    GENERATED BY OPEN BABEL 2.4.90

>  <MASTER>
        0    0    0    0    0    0    0    0   23    0   23    0

