__3w70_A_rec_2e6f_oxc_lig_docked.pdb
 OpenBabel10201917143D

 11 11  0  0  0  0  0  0  0  0999 V2000
    6.0790  -11.0040  -14.1400 N   0  0  0  0  0  4  0  0  0  0  0  0
    5.4320  -11.6410  -15.1500 C   0  0  0  0  0  0  0  0  0  0  0  0
    5.0370  -10.9920  -16.1500 O   0  0  0  0  0  0  0  0  0  0  0  0
    5.2280  -12.9710  -15.0650 N   0  0  0  0  0  0  0  0  0  0  0  0
    5.6730  -13.6270  -13.9660 C   0  0  0  0  0  0  0  0  0  0  0  0
    6.3070  -12.9990  -12.9470 N   0  0  0  0  0  0  0  0  0  0  0  0
    6.5190  -11.6680  -13.0380 C   0  0  0  0  0  0  0  0  0  0  0  0
    7.0980  -11.0520  -12.1180 O   0  0  0  0  0  0  0  0  0  0  0  0
    5.3760  -15.0780  -13.8180 C   0  0  0  0  0  0  0  0  0  0  0  0
    5.6690  -15.9250  -14.6880 O   0  0  0  0  0  0  0  0  0  0  0  0
    4.8550  -15.3610  -12.7120 O   0  0  0  0  0  0  0  0  0  0  0  0
  1  2  2  0  0  0  0
  1  7  2  0  0  0  0
  2  3  2  0  0  0  0
  2  4  1  0  0  0  0
  4  5  2  0  0  0  0
  5  9  1  0  0  0  0
  5  6  1  0  0  0  0
  6  7  1  0  0  0  0
  7  8  2  0  0  0  0
  9 10  2  0  0  0  0
  9 11  1  0  0  0  0
M  END
>  <MODEL>
      20

>  <COMPND>
    UNNAMED

>  <AUTHOR>
    GENERATED BY OPEN BABEL 2.4.90

>  <MASTER>
        0    0    0    0    0    0    0    0   11    0   11    0

