__3w70_A_rec_2e6a_oro_lig_docked.pdb
 OpenBabel10201917143D

 11 11  0  0  0  0  0  0  0  0999 V2000
    4.1510  -12.4430  -14.3980 N   0  0  0  0  0  0  0  0  0  0  0  0
    4.2330  -11.1880  -13.9240 C   0  0  0  0  0  0  0  0  0  0  0  0
    3.2930  -10.3670  -14.1090 O   0  0  0  0  0  0  0  0  0  0  0  0
    5.3410  -10.7830  -13.2450 N   0  0  0  0  0  0  0  0  0  0  0  0
    6.3520  -11.6360  -13.0060 C   0  0  0  0  0  0  0  0  0  0  0  0
    7.3390  -11.2430  -12.3680 O   0  0  0  0  0  0  0  0  0  0  0  0
    6.2930  -12.9610  -13.4570 C   0  0  0  0  0  0  0  0  0  0  0  0
    5.1620  -13.3160  -14.2000 C   0  0  0  0  0  0  0  0  0  0  0  0
    4.9870  -14.7310  -14.6210 C   0  0  0  0  0  0  0  0  0  0  0  0
    5.8610  -15.6140  -14.5010 O   0  0  0  0  0  0  0  0  0  0  0  0
    3.8170  -14.9490  -15.0050 O   0  0  0  0  0  0  0  0  0  0  0  0
  1  2  2  0  0  0  0
  1  8  1  0  0  0  0
  2  3  2  0  0  0  0
  2  4  1  0  0  0  0
  4  5  1  0  0  0  0
  5  7  1  0  0  0  0
  5  6  2  0  0  0  0
  7  8  2  0  0  0  0
  8  9  1  0  0  0  0
  9 11  2  0  0  0  0
  9 10  1  0  0  0  0
M  END
>  <MODEL>
      15

>  <COMPND>
    UNNAMED

>  <AUTHOR>
    GENERATED BY OPEN BABEL 2.4.90

>  <MASTER>
        0    0    0    0    0    0    0    0   11    0   11    0

