__3w70_A_rec_2e6f_oxc_lig_min.pdb
 OpenBabel10201915123D

 11 11  0  0  0  0  0  0  0  0999 V2000
    6.0370  -10.8620  -13.8040 N   0  0  0  0  0  4  0  0  0  0  0  0
    5.4280  -11.4480  -14.8660 C   0  0  0  0  0  0  0  0  0  0  0  0
    4.9260  -10.7390  -15.7720 O   0  0  0  0  0  0  0  0  0  0  0  0
    5.3760  -12.7950  -14.9340 N   0  0  0  0  0  0  0  0  0  0  0  0
    5.9320  -13.5170  -13.9310 C   0  0  0  0  0  0  0  0  0  0  0  0
    6.5300  -12.9420  -12.8610 N   0  0  0  0  0  0  0  0  0  0  0  0
    6.5900  -11.5930  -12.8000 C   0  0  0  0  0  0  0  0  0  0  0  0
    7.1310  -11.0240  -11.8270 O   0  0  0  0  0  0  0  0  0  0  0  0
    5.8030  -14.9990  -13.9500 C   0  0  0  0  0  0  0  0  0  0  0  0
    6.7460  -15.7690  -13.6660 O   0  0  0  0  0  0  0  0  0  0  0  0
    4.6410  -15.3870  -14.2240 O   0  0  0  0  0  0  0  0  0  0  0  0
  1  2  2  0  0  0  0
  1  7  2  0  0  0  0
  2  3  2  0  0  0  0
  2  4  1  0  0  0  0
  4  5  2  0  0  0  0
  5  9  1  0  0  0  0
  5  6  1  0  0  0  0
  6  7  1  0  0  0  0
  7  8  2  0  0  0  0
  9 10  2  0  0  0  0
  9 11  1  0  0  0  0
M  END
>  <COMPND>
    UNNAMED

>  <AUTHOR>
    GENERATED BY OPEN BABEL 2.4.90

>  <MASTER>
        0    0    0    0    0    0    0    0   11    0   11    0

