__3w70_A_rec_2e6d_fum_lig_min.pdb
 OpenBabel10201915053D

  8  7  0  0  0  0  0  0  0  0999 V2000
    5.0160  -12.8430  -14.8320 C   0  0  0  0  0  0  0  0  0  0  0  0
    5.1670  -13.3060  -13.5950 C   0  0  0  0  0  0  0  0  0  0  0  0
    3.5000  -11.0990  -15.4390 O   0  0  0  0  0  0  0  0  0  0  0  0
    4.5930  -11.4240  -14.9490 C   0  0  0  0  0  0  0  0  0  0  0  0
    5.4040  -10.5660  -14.5380 O   0  0  0  0  0  0  0  0  0  0  0  0
    5.6340  -14.6790  -13.3080 C   0  0  0  0  0  0  0  0  0  0  0  0
    4.8900  -15.3650  -12.6060 O   0  0  0  0  0  0  0  0  0  0  0  0
    6.7580  -15.0980  -13.7020 O   0  0  0  0  0  0  0  0  0  0  0  0
  1  4  1  0  0  0  0
  1  2  2  0  0  0  0
  2  6  1  0  0  0  0
  3  4  2  0  0  0  0
  4  5  1  0  0  0  0
  6  8  2  0  0  0  0
  6  7  1  0  0  0  0
M  END
>  <COMPND>
    UNNAMED

>  <AUTHOR>
    GENERATED BY OPEN BABEL 2.4.90

>  <MASTER>
        0    0    0    0    0    0    0    0    8    0    8    0

