__3w70_A_rec_3w2k_kro_lig_min.pdb
 OpenBabel10201914273D

 21 22  0  0  0  0  0  0  0  0999 V2000
    5.6270  -13.5890  -14.3750 C   0  0  0  0  0  0  0  0  0  0  0  0
    5.3580  -12.7660  -15.5370 N   0  0  0  0  0  0  0  0  0  0  0  0
    5.7470  -11.4310  -15.5430 C   0  0  0  0  0  0  0  0  0  0  0  0
    5.5510  -10.7250  -16.5430 O   0  0  0  0  0  0  0  0  0  0  0  0
    6.4480  -10.9730  -14.4000 N   0  0  0  0  0  0  0  0  0  0  0  0
    6.6760  -11.7610  -13.2440 C   0  0  0  0  0  0  0  0  0  0  0  0
    7.2560  -11.2210  -12.2560 O   0  0  0  0  0  0  0  0  0  0  0  0
    6.1710  -13.0460  -13.2600 C   0  0  0  0  0  0  0  0  0  0  0  0
    5.7610  -15.9890  -14.6190 O   0  0  0  0  0  0  0  0  0  0  0  0
    5.0060  -15.0010  -14.4880 C   0  0  0  0  0  0  0  0  0  0  0  0
    3.7760  -15.0360  -14.5250 O   0  0  0  0  0  0  0  0  0  0  0  0
    6.3490  -13.8730  -12.1260 C   0  0  0  0  0  0  0  0  0  0  0  0
    5.4810  -13.3200  -10.9190 C   0  0  0  0  0  0  0  0  0  0  0  0
    4.3370  -13.8690  -10.9680 C   0  0  0  0  0  0  0  0  0  0  0  0
    4.3590  -15.1670  -10.4770 C   0  0  0  0  0  0  0  0  0  0  0  0
    3.2710  -15.9490  -10.5430 C   0  0  0  0  0  0  0  0  0  0  0  0
    3.3260  -17.2690   -9.9640 C   0  0  0  0  0  0  0  0  0  0  0  0
    2.0830  -15.3880  -11.0800 C   0  0  0  0  0  0  0  0  0  0  0  0
    0.9810  -16.1660  -11.1060 F   0  0  0  0  0  0  0  0  0  0  0  0
    2.0050  -14.0810  -11.5950 C   0  0  0  0  0  0  0  0  0  0  0  0
    3.1800  -13.2890  -11.5340 C   0  0  0  0  0  0  0  0  0  0  0  0
  1  2  1  0  0  0  0
  1 10  1  0  0  0  0
  1  8  2  0  0  0  0
  2  3  2  0  0  0  0
  3  4  2  0  0  0  0
  3  5  1  0  0  0  0
  5  6  1  0  0  0  0
  6  8  1  0  0  0  0
  6  7  2  0  0  0  0
  8 12  1  0  0  0  0
  9 10  2  0  0  0  0
 10 11  1  0  0  0  0
 12 13  1  0  0  0  0
 13 14  1  0  0  0  0
 14 21  2  0  0  0  0
 14 15  1  0  0  0  0
 15 16  2  0  0  0  0
 16 18  1  0  0  0  0
 16 17  1  0  0  0  0
 18 20  2  0  0  0  0
 18 19  1  0  0  0  0
 20 21  1  0  0  0  0
M  END
>  <COMPND>
    UNNAMED

>  <AUTHOR>
    GENERATED BY OPEN BABEL 2.4.90

>  <MASTER>
        0    0    0    0    0    0    0    0   21    0   21    0

