__3w71_A_rec_3w7p_w7p_lig_min.pdb
 OpenBabel10201914273D

 22 23  0  0  0  0  0  0  0  0999 V2000
    5.6410  -13.5510  -14.2720 C   0  0  0  0  0  0  0  0  0  0  0  0
    5.2840  -12.7400  -15.3970 N   0  0  0  0  0  0  0  0  0  0  0  0
    5.6070  -11.3890  -15.3700 C   0  0  0  0  0  0  0  0  0  0  0  0
    5.2690  -10.6230  -16.2950 O   0  0  0  0  0  0  0  0  0  0  0  0
    6.2110  -10.8780  -14.2520 N   0  0  0  0  0  0  0  0  0  0  0  0
    6.5990  -11.6470  -13.1680 C   0  0  0  0  0  0  0  0  0  0  0  0
    7.2010  -11.0640  -12.2690 O   0  0  0  0  0  0  0  0  0  0  0  0
    6.2890  -13.0260  -13.1740 C   0  0  0  0  0  0  0  0  0  0  0  0
    3.9340  -15.1400  -14.3770 O   0  0  0  0  0  0  0  0  0  0  0  0
    5.1790  -14.9310  -14.4080 C   0  0  0  0  0  0  0  0  0  0  0  0
    6.0100  -15.8320  -14.5480 O   0  0  0  0  0  0  0  0  0  0  0  0
    6.6520  -13.8450  -11.9510 C   0  0  0  0  0  0  0  0  0  0  0  0
    5.6710  -13.4130  -10.7740 C   0  0  0  0  0  0  0  0  0  0  0  0
    4.4100  -14.1210  -10.8260 C   0  0  0  0  0  0  0  0  0  0  0  0
    4.5000  -15.4580  -10.6020 C   0  0  0  0  0  0  0  0  0  0  0  0
    3.3850  -16.2540  -10.6380 C   0  0  0  0  0  0  0  0  0  0  0  0
    2.1900  -15.8010  -10.9380 C   0  0  0  0  0  0  0  0  0  0  0  0
    1.9740  -14.4150  -11.1740 C   0  0  0  0  0  0  0  0  0  0  0  0
    3.1700  -13.5800  -11.1500 C   0  0  0  0  0  0  0  0  0  0  0  0
    1.1410  -16.8030  -10.9420 C   0  0  0  0  0  0  0  0  0  0  0  0
    1.1830  -17.9730  -10.3700 O   0  0  0  0  0  0  0  0  0  0  0  0
    0.1720  -16.5360  -11.6100 O   0  0  0  0  0  0  0  0  0  0  0  0
  1  2  1  0  0  0  0
  1 10  1  0  0  0  0
  1  8  2  0  0  0  0
  2  3  2  0  0  0  0
  3  4  2  0  0  0  0
  3  5  1  0  0  0  0
  5  6  1  0  0  0  0
  6  8  1  0  0  0  0
  6  7  2  0  0  0  0
  8 12  1  0  0  0  0
  9 10  2  0  0  0  0
 10 11  1  0  0  0  0
 12 13  1  0  0  0  0
 13 14  1  0  0  0  0
 14 19  2  0  0  0  0
 14 15  1  0  0  0  0
 15 16  2  0  0  0  0
 16 17  1  0  0  0  0
 17 18  2  0  0  0  0
 17 20  1  0  0  0  0
 18 19  1  0  0  0  0
 20 22  2  0  0  0  0
 20 21  1  0  0  0  0
M  END
>  <COMPND>
    UNNAMED

>  <AUTHOR>
    GENERATED BY OPEN BABEL 2.4.90

>  <MASTER>
        0    0    0    0    0    0    0    0   22    0   22    0

