__3w71_A_rec_3w71_w7a_lig_min.pdb
 OpenBabel10201912003D

 25 27  0  0  0  0  0  0  0  0999 V2000
    6.5970  -13.7880  -12.0220 C   0  0  0  0  0  0  0  0  0  0  0  0
    5.6650  -13.5030  -14.2970 C   0  0  0  0  0  0  0  0  0  0  0  0
    5.3820  -12.6590  -15.4290 N   0  0  0  0  0  0  0  0  0  0  0  0
    5.7400  -11.3270  -15.4310 C   0  0  0  0  0  0  0  0  0  0  0  0
    5.4410  -10.5850  -16.3960 O   0  0  0  0  0  0  0  0  0  0  0  0
    6.4800  -10.9180  -14.3420 N   0  0  0  0  0  0  0  0  0  0  0  0
    6.7310  -11.6560  -13.1840 C   0  0  0  0  0  0  0  0  0  0  0  0
    7.3670  -11.1390  -12.2410 O   0  0  0  0  0  0  0  0  0  0  0  0
    6.3400  -13.0310  -13.2160 C   0  0  0  0  0  0  0  0  0  0  0  0
    3.9270  -15.0080  -14.4730 O   0  0  0  0  0  0  0  0  0  0  0  0
    5.1600  -14.8930  -14.4790 C   0  0  0  0  0  0  0  0  0  0  0  0
    6.0040  -15.8480  -14.6070 O   0  0  0  0  0  0  0  0  0  0  0  0
    5.6960  -13.3460  -10.8620 C   0  0  0  0  0  0  0  0  0  0  0  0
    4.4860  -14.1420  -10.8420 C   0  0  0  0  0  0  0  0  0  0  0  0
    4.4810  -15.4890  -10.5500 C   0  0  0  0  0  0  0  0  0  0  0  0
    3.2780  -16.2770  -10.6000 C   0  0  0  0  0  0  0  0  0  0  0  0
    3.2020  -13.6320  -11.1480 C   0  0  0  0  0  0  0  0  0  0  0  0
    1.9990  -14.3840  -11.2230 C   0  0  0  0  0  0  0  0  0  0  0  0
    1.9930  -15.7650  -10.9330 C   0  0  0  0  0  0  0  0  0  0  0  0
    0.7780  -16.5350  -10.9760 C   0  0  0  0  0  0  0  0  0  0  0  0
    0.7540  -17.8800  -10.5180 C   0  0  0  0  0  0  0  0  0  0  0  0
   -0.4420  -18.6100  -10.5590 C   0  0  0  0  0  0  0  0  0  0  0  0
   -1.5920  -18.0460  -11.1040 C   0  0  0  0  0  0  0  0  0  0  0  0
   -1.5990  -16.7790  -11.6390 C   0  0  0  0  0  0  0  0  0  0  0  0
   -0.4150  -16.0180  -11.5630 C   0  0  0  0  0  0  0  0  0  0  0  0
  1  9  1  0  0  0  0
  1 13  1  0  0  0  0
  2  3  1  0  0  0  0
  2 11  1  0  0  0  0
  2  9  2  0  0  0  0
  3  4  2  0  0  0  0
  4  5  2  0  0  0  0
  4  6  1  0  0  0  0
  6  7  1  0  0  0  0
  7  9  1  0  0  0  0
  7  8  2  0  0  0  0
 10 11  2  0  0  0  0
 11 12  1  0  0  0  0
 13 14  1  0  0  0  0
 14 17  2  0  0  0  0
 14 15  1  0  0  0  0
 15 16  2  0  0  0  0
 16 19  1  0  0  0  0
 17 18  1  0  0  0  0
 18 19  2  0  0  0  0
 19 20  1  0  0  0  0
 20 25  2  0  0  0  0
 20 21  1  0  0  0  0
 21 22  2  0  0  0  0
 22 23  1  0  0  0  0
 23 24  2  0  0  0  0
 24 25  1  0  0  0  0
M  END
>  <COMPND>
    UNNAMED

>  <AUTHOR>
    GENERATED BY OPEN BABEL 2.4.90

>  <MASTER>
        0    0    0    0    0    0    0    0   25    0   25    0

