__3w72_B_rec_3w72_w7b_lig_min.pdb
 OpenBabel10201913473D

 23 25  0  0  0  0  0  0  0  0999 V2000
    5.2810  -13.5860  -14.2550 C   0  0  0  0  0  0  0  0  0  0  0  0
    5.1760  -12.7770  -15.3790 N   0  0  0  0  0  0  0  0  0  0  0  0
    5.6330  -11.4680  -15.3650 C   0  0  0  0  0  0  0  0  0  0  0  0
    5.4880  -10.7170  -16.3490 O   0  0  0  0  0  0  0  0  0  0  0  0
    6.2790  -11.0360  -14.2250 N   0  0  0  0  0  0  0  0  0  0  0  0
    6.4660  -11.8170  -13.1080 C   0  0  0  0  0  0  0  0  0  0  0  0
    7.0980  -11.3750  -12.1580 O   0  0  0  0  0  0  0  0  0  0  0  0
    5.9180  -13.1420  -13.1290 C   0  0  0  0  0  0  0  0  0  0  0  0
    3.3840  -14.8500  -14.4170 O   0  0  0  0  0  0  0  0  0  0  0  0
    4.6190  -14.8850  -14.4250 C   0  0  0  0  0  0  0  0  0  0  0  0
    5.2400  -15.9170  -14.5170 O   0  0  0  0  0  0  0  0  0  0  0  0
    5.9890  -13.9990  -12.0340 C   0  0  0  0  0  0  0  0  0  0  0  0
    5.1760  -13.4840  -10.8430 C   0  0  0  0  0  0  0  0  0  0  0  0
    3.7980  -13.9040  -10.9690 C   0  0  0  0  0  0  0  0  0  0  0  0
    3.3150  -15.1970  -10.5910 C   0  0  0  0  0  0  0  0  0  0  0  0
    4.1780  -16.1440  -10.0000 C   0  0  0  0  0  0  0  0  0  0  0  0
    3.6790  -17.4140   -9.6430 C   0  0  0  0  0  0  0  0  0  0  0  0
    2.3450  -17.6610   -9.9060 C   0  0  0  0  0  0  0  0  0  0  0  0
    1.4530  -16.7530  -10.4730 C   0  0  0  0  0  0  0  0  0  0  0  0
    1.9560  -15.5060  -10.8350 C   0  0  0  0  0  0  0  0  0  0  0  0
    1.0630  -14.5940  -11.3860 C   0  0  0  0  0  0  0  0  0  0  0  0
    1.4400  -13.3530  -11.6810 C   0  0  0  0  0  0  0  0  0  0  0  0
    2.8220  -13.0630  -11.5080 C   0  0  0  0  0  0  0  0  0  0  0  0
  1  2  1  0  0  0  0
  1 10  1  0  0  0  0
  1  8  2  0  0  0  0
  2  3  2  0  0  0  0
  3  4  2  0  0  0  0
  3  5  1  0  0  0  0
  5  6  1  0  0  0  0
  6  8  1  0  0  0  0
  6  7  2  0  0  0  0
  8 12  1  0  0  0  0
  9 10  2  0  0  0  0
 10 11  1  0  0  0  0
 12 13  1  0  0  0  0
 13 14  1  0  0  0  0
 14 23  2  0  0  0  0
 14 15  1  0  0  0  0
 15 20  2  0  0  0  0
 15 16  1  0  0  0  0
 16 17  2  0  0  0  0
 17 18  1  0  0  0  0
 18 19  2  0  0  0  0
 19 20  1  0  0  0  0
 20 21  1  0  0  0  0
 21 22  2  0  0  0  0
 22 23  1  0  0  0  0
M  END
>  <COMPND>
    UNNAMED

>  <AUTHOR>
    GENERATED BY OPEN BABEL 2.4.90

>  <MASTER>
        0    0    0    0    0    0    0    0   23    0   23    0

