__3w72_B_rec_3w1x_xro_lig_min.pdb
 OpenBabel10201914363D

 22 23  0  0  0  0  0  0  0  0999 V2000
    5.6190  -13.6230  -14.3010 C   0  0  0  0  0  0  0  0  0  0  0  0
    5.2050  -12.7700  -15.3310 N   0  0  0  0  0  0  0  0  0  0  0  0
    5.4420  -11.4380  -15.3220 C   0  0  0  0  0  0  0  0  0  0  0  0
    5.0400  -10.6890  -16.2530 O   0  0  0  0  0  0  0  0  0  0  0  0
    6.1210  -10.9330  -14.2670 N   0  0  0  0  0  0  0  0  0  0  0  0
    6.6650  -11.7430  -13.2310 C   0  0  0  0  0  0  0  0  0  0  0  0
    7.2410  -11.1530  -12.3140 O   0  0  0  0  0  0  0  0  0  0  0  0
    6.3040  -13.1070  -13.2490 C   0  0  0  0  0  0  0  0  0  0  0  0
    3.8970  -15.1950  -14.3140 O   0  0  0  0  0  0  0  0  0  0  0  0
    5.1230  -15.0090  -14.4470 C   0  0  0  0  0  0  0  0  0  0  0  0
    5.9600  -15.9290  -14.6640 O   0  0  0  0  0  0  0  0  0  0  0  0
    6.7450  -13.9800  -12.0900 C   0  0  0  0  0  0  0  0  0  0  0  0
    6.0660  -13.5260  -10.7140 C   0  0  0  0  0  0  0  0  0  0  0  0
    4.6700  -13.8680  -10.7570 C   0  0  0  0  0  0  0  0  0  0  0  0
    4.2190  -15.1910  -10.7250 C   0  0  0  0  0  0  0  0  0  0  0  0
    2.8450  -15.5080  -10.9000 C   0  0  0  0  0  0  0  0  0  0  0  0
    1.9280  -14.5510  -11.0780 C   0  0  0  0  0  0  0  0  0  0  0  0
    2.3190  -13.2480  -11.0880 C   0  0  0  0  0  0  0  0  0  0  0  0
    3.6770  -12.8950  -10.9300 C   0  0  0  0  0  0  0  0  0  0  0  0
    0.4810  -14.8340  -11.3030 C   0  0  0  0  0  0  0  0  0  0  0  0
    0.3460  -15.6500  -12.5360 C   0  0  0  0  0  0  0  0  0  0  0  0
    0.2490  -16.2580  -13.5270 N   0  0  0  0  0  0  0  0  0  0  0  0
  1  2  1  0  0  0  0
  1 10  1  0  0  0  0
  1  8  2  0  0  0  0
  2  3  2  0  0  0  0
  3  4  2  0  0  0  0
  3  5  1  0  0  0  0
  5  6  1  0  0  0  0
  6  8  1  0  0  0  0
  6  7  2  0  0  0  0
  8 12  1  0  0  0  0
  9 10  2  0  0  0  0
 10 11  1  0  0  0  0
 12 13  1  0  0  0  0
 13 14  1  0  0  0  0
 14 19  2  0  0  0  0
 14 15  1  0  0  0  0
 15 16  2  0  0  0  0
 16 17  1  0  0  0  0
 17 20  1  0  0  0  0
 17 18  2  0  0  0  0
 18 19  1  0  0  0  0
 20 21  1  0  0  0  0
 21 22  3  0  0  0  0
M  END
>  <COMPND>
    UNNAMED

>  <AUTHOR>
    GENERATED BY OPEN BABEL 2.4.90

>  <MASTER>
        0    0    0    0    0    0    0    0   22    0   22    0

