__3w72_B_rec_3w2n_rod_lig_min.pdb
 OpenBabel10201911523D

 23 24  0  0  0  0  0  0  0  0999 V2000
    5.7360  -13.6850  -14.3810 C   0  0  0  0  0  0  0  0  0  0  0  0
    5.4680  -12.8310  -15.4830 N   0  0  0  0  0  0  0  0  0  0  0  0
    5.7630  -11.4590  -15.4540 C   0  0  0  0  0  0  0  0  0  0  0  0
    5.5430  -10.6990  -16.3960 O   0  0  0  0  0  0  0  0  0  0  0  0
    6.3260  -10.9710  -14.2470 N   0  0  0  0  0  0  0  0  0  0  0  0
    6.5030  -11.7840  -13.1240 C   0  0  0  0  0  0  0  0  0  0  0  0
    6.9700  -11.2590  -12.1210 O   0  0  0  0  0  0  0  0  0  0  0  0
    6.1740  -13.1670  -13.1810 C   0  0  0  0  0  0  0  0  0  0  0  0
    6.2070  -15.9610  -14.6660 O   0  0  0  0  0  0  0  0  0  0  0  0
    5.3620  -15.0710  -14.5070 C   0  0  0  0  0  0  0  0  0  0  0  0
    4.2050  -15.4040  -14.4390 O   0  0  0  0  0  0  0  0  0  0  0  0
    6.3410  -13.9880  -12.0650 C   0  0  0  0  0  0  0  0  0  0  0  0
    5.0240  -13.9470  -11.1370 C   0  0  0  0  0  0  0  0  0  0  0  0
    5.0600  -15.0840  -10.1690 C   0  0  0  0  0  0  0  0  0  0  0  0
    6.2240  -15.2070   -9.3610 C   0  0  0  0  0  0  0  0  0  0  0  0
    6.4420  -16.2670   -8.4260 C   0  0  0  0  0  0  0  0  0  0  0  0
    5.4550  -17.1860   -8.2280 C   0  0  0  0  0  0  0  0  0  0  0  0
    4.3060  -17.0690   -9.0050 C   0  0  0  0  0  0  0  0  0  0  0  0
    4.0660  -16.0460   -9.9550 C   0  0  0  0  0  0  0  0  0  0  0  0
    2.7850  -16.0410  -10.6610 C   0  0  0  0  0  0  0  0  0  0  0  0
    2.9360  -16.0550  -11.9480 F   0  0  0  0  0  0  0  0  0  0  0  0
    1.9640  -17.1660  -10.2780 F   0  0  0  0  0  0  0  0  0  0  0  0
    1.9880  -14.9230  -10.3700 F   0  0  0  0  0  0  0  0  0  0  0  0
  1  2  1  0  0  0  0
  1 10  1  0  0  0  0
  1  8  2  0  0  0  0
  2  3  2  0  0  0  0
  3  4  2  0  0  0  0
  3  5  1  0  0  0  0
  5  6  1  0  0  0  0
  6  8  1  0  0  0  0
  6  7  2  0  0  0  0
  8 12  1  0  0  0  0
  9 10  2  0  0  0  0
 10 11  1  0  0  0  0
 12 13  1  0  0  0  0
 13 14  1  0  0  0  0
 14 19  2  0  0  0  0
 14 15  1  0  0  0  0
 15 16  2  0  0  0  0
 16 17  1  0  0  0  0
 17 18  2  0  0  0  0
 18 19  1  0  0  0  0
 19 20  1  0  0  0  0
 20 21  1  0  0  0  0
 20 23  1  0  0  0  0
 20 22  1  0  0  0  0
M  END
>  <COMPND>
    UNNAMED

>  <AUTHOR>
    GENERATED BY OPEN BABEL 2.4.90

>  <MASTER>
        0    0    0    0    0    0    0    0   23    0   23    0

