__3w73_A_rec_3w7k_w7k_lig_min.pdb
 OpenBabel10201913203D

 27 29  0  0  0  0  0  0  0  0999 V2000
    6.3670  -13.3180  -11.2190 C   0  0  0  0  0  0  0  0  0  0  0  0
    5.1120  -13.8820  -11.0290 C   0  0  0  0  0  0  0  0  0  0  0  0
    4.9900  -15.2300  -10.7100 C   0  0  0  0  0  0  0  0  0  0  0  0
    3.7300  -15.7870  -10.5200 C   0  0  0  0  0  0  0  0  0  0  0  0
    3.6110  -17.1340  -10.2030 C   0  0  0  0  0  0  0  0  0  0  0  0
    2.3520  -17.6950  -10.0120 C   0  0  0  0  0  0  0  0  0  0  0  0
    1.2140  -16.9090  -10.1390 C   0  0  0  0  0  0  0  0  0  0  0  0
    1.3320  -15.5610  -10.4580 C   0  0  0  0  0  0  0  0  0  0  0  0
    2.5890  -14.9990  -10.6480 C   0  0  0  0  0  0  0  0  0  0  0  0
    2.7060  -13.6500  -10.9660 C   0  0  0  0  0  0  0  0  0  0  0  0
    3.9680  -13.1050  -11.1540 C   0  0  0  0  0  0  0  0  0  0  0  0
   -0.0170  -17.4590   -9.9530 O   0  0  0  0  0  0  0  0  0  0  0  0
   -0.3350  -18.3010  -11.0640 C   0  0  0  0  0  0  0  0  0  0  0  0
    4.1530  -11.7950  -11.4660 O   0  0  0  0  0  0  0  0  0  0  0  0
    2.9010  -11.1090  -11.4120 C   0  0  0  0  0  0  0  0  0  0  0  0
    6.9840  -13.8670  -12.5070 C   0  0  0  0  0  0  0  0  0  0  0  0
    5.8190  -13.6330  -14.5990 C   0  0  0  0  0  0  0  0  0  0  0  0
    5.4180  -12.8460  -15.6850 N   0  0  0  0  0  0  0  0  0  0  0  0
    5.7940  -11.5010  -15.7440 C   0  0  0  0  0  0  0  0  0  0  0  0
    5.4440  -10.8030  -16.6950 O   0  0  0  0  0  0  0  0  0  0  0  0
    6.5690  -10.9480  -14.7180 N   0  0  0  0  0  0  0  0  0  0  0  0
    6.9660  -11.7420  -13.6360 C   0  0  0  0  0  0  0  0  0  0  0  0
    7.6460  -11.2460  -12.7390 O   0  0  0  0  0  0  0  0  0  0  0  0
    6.5890  -13.0790  -13.5820 C   0  0  0  0  0  0  0  0  0  0  0  0
    6.2450  -15.8580  -14.9080 O   0  0  0  0  0  0  0  0  0  0  0  0
    5.4470  -14.9700  -14.5380 C   0  0  0  0  0  0  0  0  0  0  0  0
    4.3150  -15.2860  -14.1130 O   0  0  0  0  0  0  0  0  0  0  0  0
  1 16  1  0  0  0  0
  1  2  1  0  0  0  0
  2 11  2  0  0  0  0
  2  3  1  0  0  0  0
  3  4  2  0  0  0  0
  4  9  1  0  0  0  0
  4  5  1  0  0  0  0
  5  6  2  0  0  0  0
  6  7  1  0  0  0  0
  7  8  2  0  0  0  0
  7 12  1  0  0  0  0
  8  9  1  0  0  0  0
  9 10  2  0  0  0  0
 10 11  1  0  0  0  0
 11 14  1  0  0  0  0
 12 13  1  0  0  0  0
 14 15  1  0  0  0  0
 16 24  1  0  0  0  0
 17 18  1  0  0  0  0
 17 26  1  0  0  0  0
 17 24  2  0  0  0  0
 18 19  2  0  0  0  0
 19 20  2  0  0  0  0
 19 21  1  0  0  0  0
 21 22  1  0  0  0  0
 22 24  1  0  0  0  0
 22 23  2  0  0  0  0
 25 26  2  0  0  0  0
 26 27  1  0  0  0  0
M  END
>  <COMPND>
    UNNAMED

>  <AUTHOR>
    GENERATED BY OPEN BABEL 2.4.90

>  <MASTER>
        0    0    0    0    0    0    0    0   27    0   27    0

