__3w73_A_rec_3w7m_w7m_lig_min.pdb
 OpenBabel10201913213D

 27 29  0  0  0  0  0  0  0  0999 V2000
    5.4930  -13.3750  -10.9540 C   0  0  0  0  0  0  0  0  0  0  0  0
    4.5830  -14.4300  -10.8400 C   0  0  0  0  0  0  0  0  0  0  0  0
    3.3480  -14.4320  -11.4580 C   0  0  0  0  0  0  0  0  0  0  0  0
    4.9150  -15.5350  -10.0610 C   0  0  0  0  0  0  0  0  0  0  0  0
    4.0510  -16.6320   -9.8840 C   0  0  0  0  0  0  0  0  0  0  0  0
    2.8130  -16.6190  -10.5160 C   0  0  0  0  0  0  0  0  0  0  0  0
    1.9310  -17.7060  -10.3600 C   0  0  0  0  0  0  0  0  0  0  0  0
    2.4830  -15.5170  -11.3050 C   0  0  0  0  0  0  0  0  0  0  0  0
    1.2550  -15.4960  -11.9340 C   0  0  0  0  0  0  0  0  0  0  0  0
    0.3680  -16.5540  -11.7900 C   0  0  0  0  0  0  0  0  0  0  0  0
    0.6850  -17.6720  -11.0090 C   0  0  0  0  0  0  0  0  0  0  0  0
   -0.2250  -18.7370  -10.9290 C   0  0  0  0  0  0  0  0  0  0  0  0
    0.0980  -19.8370  -10.4690 O   0  0  0  0  0  0  0  0  0  0  0  0
   -1.4280  -18.5060  -11.5460 O   0  0  0  0  0  0  0  0  0  0  0  0
   -2.4820  -19.3910  -11.0530 C   0  0  0  0  0  0  0  0  0  0  0  0
    6.6850  -13.6200  -11.9840 C   0  0  0  0  0  0  0  0  0  0  0  0
    5.7130  -13.5930  -14.3100 C   0  0  0  0  0  0  0  0  0  0  0  0
    5.3440  -12.8230  -15.4540 N   0  0  0  0  0  0  0  0  0  0  0  0
    5.4780  -11.4050  -15.4300 C   0  0  0  0  0  0  0  0  0  0  0  0
    5.1340  -10.6650  -16.3490 O   0  0  0  0  0  0  0  0  0  0  0  0
    6.0440  -10.8120  -14.3000 N   0  0  0  0  0  0  0  0  0  0  0  0
    6.4470  -11.5780  -13.1850 C   0  0  0  0  0  0  0  0  0  0  0  0
    6.9550  -10.9830  -12.2320 O   0  0  0  0  0  0  0  0  0  0  0  0
    6.2780  -12.9590  -13.1790 C   0  0  0  0  0  0  0  0  0  0  0  0
    6.5070  -15.7750  -14.4600 O   0  0  0  0  0  0  0  0  0  0  0  0
    5.5110  -14.9900  -14.4010 C   0  0  0  0  0  0  0  0  0  0  0  0
    4.3140  -15.4460  -14.4600 O   0  0  0  0  0  0  0  0  0  0  0  0
  1 16  1  0  0  0  0
  1  2  1  0  0  0  0
  2  3  2  0  0  0  0
  2  4  1  0  0  0  0
  3  8  1  0  0  0  0
  4  5  2  0  0  0  0
  5  6  1  0  0  0  0
  6  8  2  0  0  0  0
  6  7  1  0  0  0  0
  7 11  2  0  0  0  0
  8  9  1  0  0  0  0
  9 10  2  0  0  0  0
 10 11  1  0  0  0  0
 11 12  1  0  0  0  0
 12 14  1  0  0  0  0
 12 13  2  0  0  0  0
 14 15  1  0  0  0  0
 16 24  1  0  0  0  0
 17 18  1  0  0  0  0
 17 26  1  0  0  0  0
 17 24  2  0  0  0  0
 18 19  2  0  0  0  0
 19 20  2  0  0  0  0
 19 21  1  0  0  0  0
 21 22  1  0  0  0  0
 22 24  1  0  0  0  0
 22 23  2  0  0  0  0
 25 26  2  0  0  0  0
 26 27  1  0  0  0  0
M  END
>  <COMPND>
    UNNAMED

>  <AUTHOR>
    GENERATED BY OPEN BABEL 2.4.90

>  <MASTER>
        0    0    0    0    0    0    0    0   27    0   27    0

