__3w73_A_rec_3w7c_w7c_lig_min.pdb
 OpenBabel10201915133D

 25 27  0  0  0  0  0  0  0  0999 V2000
    6.9930  -13.8030  -12.2530 C   0  0  0  0  0  0  0  0  0  0  0  0
    5.8540  -13.6260  -14.3400 C   0  0  0  0  0  0  0  0  0  0  0  0
    5.2750  -12.8510  -15.4020 N   0  0  0  0  0  0  0  0  0  0  0  0
    5.5000  -11.4800  -15.4100 C   0  0  0  0  0  0  0  0  0  0  0  0
    5.0060  -10.7840  -16.2940 O   0  0  0  0  0  0  0  0  0  0  0  0
    6.2180  -10.9030  -14.3960 N   0  0  0  0  0  0  0  0  0  0  0  0
    6.7360  -11.6410  -13.2890 C   0  0  0  0  0  0  0  0  0  0  0  0
    7.3820  -11.0180  -12.4490 O   0  0  0  0  0  0  0  0  0  0  0  0
    6.5530  -13.0120  -13.2780 C   0  0  0  0  0  0  0  0  0  0  0  0
    6.2520  -15.8910  -14.9200 O   0  0  0  0  0  0  0  0  0  0  0  0
    5.5100  -15.0220  -14.4100 C   0  0  0  0  0  0  0  0  0  0  0  0
    4.3740  -15.3130  -14.0300 O   0  0  0  0  0  0  0  0  0  0  0  0
    6.3460  -13.4030  -10.8770 C   0  0  0  0  0  0  0  0  0  0  0  0
    5.0570  -14.0400  -10.8140 C   0  0  0  0  0  0  0  0  0  0  0  0
    4.8260  -15.3830  -10.5300 C   0  0  0  0  0  0  0  0  0  0  0  0
    3.9410  -13.2460  -11.0960 C   0  0  0  0  0  0  0  0  0  0  0  0
    2.6620  -13.7400  -11.1140 C   0  0  0  0  0  0  0  0  0  0  0  0
    2.4240  -15.0750  -10.8720 C   0  0  0  0  0  0  0  0  0  0  0  0
    3.5030  -15.8980  -10.4960 C   0  0  0  0  0  0  0  0  0  0  0  0
    3.2120  -17.2380  -10.2350 C   0  0  0  0  0  0  0  0  0  0  0  0
    1.9050  -17.7220  -10.3230 C   0  0  0  0  0  0  0  0  0  0  0  0
    0.8300  -16.8810  -10.6160 C   0  0  0  0  0  0  0  0  0  0  0  0
    1.0980  -15.5470  -10.8900 C   0  0  0  0  0  0  0  0  0  0  0  0
    0.1490  -14.5630  -11.1640 O   0  0  0  0  0  0  0  0  0  0  0  0
   -1.1610  -14.7730  -10.7340 C   0  0  0  0  0  0  0  0  0  0  0  0
  1  9  1  0  0  0  0
  1 13  1  0  0  0  0
  2  3  1  0  0  0  0
  2 11  1  0  0  0  0
  2  9  2  0  0  0  0
  3  4  2  0  0  0  0
  4  5  2  0  0  0  0
  4  6  1  0  0  0  0
  6  7  1  0  0  0  0
  7  9  1  0  0  0  0
  7  8  2  0  0  0  0
 10 11  2  0  0  0  0
 11 12  1  0  0  0  0
 13 14  1  0  0  0  0
 14 16  2  0  0  0  0
 14 15  1  0  0  0  0
 15 19  2  0  0  0  0
 16 17  1  0  0  0  0
 17 18  2  0  0  0  0
 18 23  1  0  0  0  0
 18 19  1  0  0  0  0
 19 20  1  0  0  0  0
 20 21  2  0  0  0  0
 21 22  1  0  0  0  0
 22 23  2  0  0  0  0
 23 24  1  0  0  0  0
 24 25  1  0  0  0  0
M  END
>  <COMPND>
    UNNAMED

>  <AUTHOR>
    GENERATED BY OPEN BABEL 2.4.90

>  <MASTER>
        0    0    0    0    0    0    0    0   25    0   25    0

