__3w74_A_rec_3w7k_w7k_lig_min.pdb
 OpenBabel10201913233D

 27 29  0  0  0  0  0  0  0  0999 V2000
    5.5030  -13.2640  -11.0290 C   0  0  0  0  0  0  0  0  0  0  0  0
    4.3310  -14.0080  -10.9540 C   0  0  0  0  0  0  0  0  0  0  0  0
    4.3520  -15.2970  -10.4330 C   0  0  0  0  0  0  0  0  0  0  0  0
    3.1750  -16.0340  -10.3610 C   0  0  0  0  0  0  0  0  0  0  0  0
    3.1970  -17.3220   -9.8410 C   0  0  0  0  0  0  0  0  0  0  0  0
    2.0230  -18.0630   -9.7670 C   0  0  0  0  0  0  0  0  0  0  0  0
    0.8260  -17.5160  -10.2120 C   0  0  0  0  0  0  0  0  0  0  0  0
    0.8030  -16.2280  -10.7340 C   0  0  0  0  0  0  0  0  0  0  0  0
    1.9760  -15.4860  -10.8080 C   0  0  0  0  0  0  0  0  0  0  0  0
    1.9500  -14.1970  -11.3300 C   0  0  0  0  0  0  0  0  0  0  0  0
    3.1300  -13.4700  -11.3980 C   0  0  0  0  0  0  0  0  0  0  0  0
   -0.3220  -18.2420  -10.1400 O   0  0  0  0  0  0  0  0  0  0  0  0
   -0.0040  -19.6360  -10.1090 C   0  0  0  0  0  0  0  0  0  0  0  0
    3.1760  -12.2060  -11.8960 O   0  0  0  0  0  0  0  0  0  0  0  0
    1.8500  -11.6860  -12.0020 C   0  0  0  0  0  0  0  0  0  0  0  0
    6.3830  -13.8110  -12.1550 C   0  0  0  0  0  0  0  0  0  0  0  0
    5.6450  -13.5540  -14.4300 C   0  0  0  0  0  0  0  0  0  0  0  0
    5.4890  -12.7650  -15.5760 N   0  0  0  0  0  0  0  0  0  0  0  0
    5.9240  -11.4350  -15.5670 C   0  0  0  0  0  0  0  0  0  0  0  0
    5.7890  -10.7360  -16.5700 O   0  0  0  0  0  0  0  0  0  0  0  0
    6.5130  -10.9030  -14.4150 N   0  0  0  0  0  0  0  0  0  0  0  0
    6.6650  -11.6990  -13.2740 C   0  0  0  0  0  0  0  0  0  0  0  0
    7.1840  -11.2200  -12.2660 O   0  0  0  0  0  0  0  0  0  0  0  0
    6.2310  -13.0200  -13.2880 C   0  0  0  0  0  0  0  0  0  0  0  0
    6.0480  -15.8040  -14.4940 O   0  0  0  0  0  0  0  0  0  0  0  0
    5.2140  -14.8750  -14.4360 C   0  0  0  0  0  0  0  0  0  0  0  0
    3.9930  -15.1350  -14.3840 O   0  0  0  0  0  0  0  0  0  0  0  0
  1 16  1  0  0  0  0
  1  2  1  0  0  0  0
  2 11  2  0  0  0  0
  2  3  1  0  0  0  0
  3  4  2  0  0  0  0
  4  9  1  0  0  0  0
  4  5  1  0  0  0  0
  5  6  2  0  0  0  0
  6  7  1  0  0  0  0
  7  8  2  0  0  0  0
  7 12  1  0  0  0  0
  8  9  1  0  0  0  0
  9 10  2  0  0  0  0
 10 11  1  0  0  0  0
 11 14  1  0  0  0  0
 12 13  1  0  0  0  0
 14 15  1  0  0  0  0
 16 24  1  0  0  0  0
 17 18  1  0  0  0  0
 17 26  1  0  0  0  0
 17 24  2  0  0  0  0
 18 19  2  0  0  0  0
 19 20  2  0  0  0  0
 19 21  1  0  0  0  0
 21 22  1  0  0  0  0
 22 24  1  0  0  0  0
 22 23  2  0  0  0  0
 25 26  2  0  0  0  0
 26 27  1  0  0  0  0
M  END
>  <COMPND>
    UNNAMED

>  <AUTHOR>
    GENERATED BY OPEN BABEL 2.4.90

>  <MASTER>
        0    0    0    0    0    0    0    0   27    0   27    0

