__3w74_A_rec_3w87_w87_lig_min.pdb
 OpenBabel10201914313D

 29 31  0  0  0  0  0  0  0  0999 V2000
    5.2100  -13.8010  -11.2400 C   0  0  0  0  0  0  0  0  0  0  0  0
    6.6960  -13.5130  -11.4300 C   0  0  0  0  0  0  0  0  0  0  0  0
    7.4960  -13.8540  -12.7400 C   0  0  0  0  0  0  0  0  0  0  0  0
    6.0620  -13.4030  -14.8480 C   0  0  0  0  0  0  0  0  0  0  0  0
    5.6280  -12.5730  -15.8580 N   0  0  0  0  0  0  0  0  0  0  0  0
    6.1800  -11.3240  -15.9510 C   0  0  0  0  0  0  0  0  0  0  0  0
    5.7940  -10.5620  -16.9040 O   0  0  0  0  0  0  0  0  0  0  0  0
    7.0800  -10.8600  -15.0660 N   0  0  0  0  0  0  0  0  0  0  0  0
    7.5410  -11.6570  -14.0080 C   0  0  0  0  0  0  0  0  0  0  0  0
    8.3530  -11.1340  -13.2290 O   0  0  0  0  0  0  0  0  0  0  0  0
    7.0090  -12.9930  -13.9160 C   0  0  0  0  0  0  0  0  0  0  0  0
    6.0350  -15.7460  -14.6750 O   0  0  0  0  0  0  0  0  0  0  0  0
    5.3030  -14.7050  -14.8180 C   0  0  0  0  0  0  0  0  0  0  0  0
    4.0860  -14.6010  -14.8320 O   0  0  0  0  0  0  0  0  0  0  0  0
    5.0210  -14.5340  -10.0210 C   0  0  0  0  0  0  0  0  0  0  0  0
    3.8390  -15.3860  -10.0930 C   0  0  0  0  0  0  0  0  0  0  0  0
    3.8640  -16.3230   -9.1330 C   0  0  0  0  0  0  0  0  0  0  0  0
    2.8540  -15.2530  -11.0610 C   0  0  0  0  0  0  0  0  0  0  0  0
    1.7520  -16.1180  -11.0180 C   0  0  0  0  0  0  0  0  0  0  0  0
    1.7600  -17.0980  -10.0070 C   0  0  0  0  0  0  0  0  0  0  0  0
    2.8060  -17.1680   -9.0620 C   0  0  0  0  0  0  0  0  0  0  0  0
    2.8280  -18.0700   -8.0140 C   0  0  0  0  0  0  0  0  0  0  0  0
    1.7090  -18.9070   -7.8970 C   0  0  0  0  0  0  0  0  0  0  0  0
    0.6600  -18.8820   -8.8470 C   0  0  0  0  0  0  0  0  0  0  0  0
    0.6810  -17.9620   -9.8720 C   0  0  0  0  0  0  0  0  0  0  0  0
   -0.4540  -18.0160  -10.8120 C   0  0  0  0  0  0  0  0  0  0  0  0
   -0.5000  -17.3720  -11.8670 O   0  0  0  0  0  0  0  0  0  0  0  0
   -1.4670  -19.0050  -10.5210 O   0  0  0  0  0  0  0  0  0  0  0  0
   -2.7220  -18.8350  -11.2460 C   0  0  0  0  0  0  0  0  0  0  0  0
  1  2  1  0  0  0  0
  1 15  1  0  0  0  0
  2  3  1  0  0  0  0
  3 11  1  0  0  0  0
  4  5  1  0  0  0  0
  4 13  1  0  0  0  0
  4 11  2  0  0  0  0
  5  6  2  0  0  0  0
  6  7  2  0  0  0  0
  6  8  1  0  0  0  0
  8  9  1  0  0  0  0
  9 11  1  0  0  0  0
  9 10  2  0  0  0  0
 12 13  2  0  0  0  0
 13 14  1  0  0  0  0
 15 16  1  0  0  0  0
 16 18  2  0  0  0  0
 16 17  1  0  0  0  0
 17 21  2  0  0  0  0
 18 19  1  0  0  0  0
 19 20  2  0  0  0  0
 20 25  1  0  0  0  0
 20 21  1  0  0  0  0
 21 22  1  0  0  0  0
 22 23  2  0  0  0  0
 23 24  1  0  0  0  0
 24 25  2  0  0  0  0
 25 26  1  0  0  0  0
 26 27  2  0  0  0  0
 26 28  1  0  0  0  0
 28 29  1  0  0  0  0
M  END
>  <COMPND>
    UNNAMED

>  <AUTHOR>
    GENERATED BY OPEN BABEL 2.4.90

>  <MASTER>
        0    0    0    0    0    0    0    0   29    0   29    0

