__3w74_A_rec_3w88_w88_lig_min.pdb
 OpenBabel10201912553D

 28 30  0  0  0  0  0  0  0  0999 V2000
    5.3040  -13.9260  -11.3760 C   0  0  0  0  0  0  0  0  0  0  0  0
    6.6610  -13.4230  -11.4300 C   0  0  0  0  0  0  0  0  0  0  0  0
    7.3960  -13.8410  -12.7440 C   0  0  0  0  0  0  0  0  0  0  0  0
    6.0710  -13.4210  -14.8760 C   0  0  0  0  0  0  0  0  0  0  0  0
    5.6420  -12.5510  -15.9050 N   0  0  0  0  0  0  0  0  0  0  0  0
    6.2140  -11.2940  -16.0090 C   0  0  0  0  0  0  0  0  0  0  0  0
    5.8490  -10.5550  -16.9520 O   0  0  0  0  0  0  0  0  0  0  0  0
    7.0330  -10.8570  -15.0360 N   0  0  0  0  0  0  0  0  0  0  0  0
    7.5030  -11.6810  -13.9870 C   0  0  0  0  0  0  0  0  0  0  0  0
    8.2980  -11.1740  -13.1770 O   0  0  0  0  0  0  0  0  0  0  0  0
    6.9450  -12.9780  -13.9050 C   0  0  0  0  0  0  0  0  0  0  0  0
    4.1130  -14.6430  -14.8860 O   0  0  0  0  0  0  0  0  0  0  0  0
    5.3660  -14.6980  -14.8020 C   0  0  0  0  0  0  0  0  0  0  0  0
    6.0380  -15.7440  -14.7550 O   0  0  0  0  0  0  0  0  0  0  0  0
    4.9340  -14.5300   -9.9280 C   0  0  0  0  0  0  0  0  0  0  0  0
    3.8520  -15.4530  -10.0150 C   0  0  0  0  0  0  0  0  0  0  0  0
    2.7290  -15.0570  -10.7500 C   0  0  0  0  0  0  0  0  0  0  0  0
    1.5870  -15.8700  -10.8810 C   0  0  0  0  0  0  0  0  0  0  0  0
    0.4660  -15.4090  -11.6470 C   0  0  0  0  0  0  0  0  0  0  0  0
   -0.6840  -16.2280  -11.7980 C   0  0  0  0  0  0  0  0  0  0  0  0
   -0.6770  -17.5020  -11.1850 C   0  0  0  0  0  0  0  0  0  0  0  0
    0.4590  -17.9560  -10.4210 C   0  0  0  0  0  0  0  0  0  0  0  0
    1.6160  -17.1510  -10.2640 C   0  0  0  0  0  0  0  0  0  0  0  0
    2.7620  -17.5640   -9.4970 C   0  0  0  0  0  0  0  0  0  0  0  0
    3.8800  -16.7030   -9.3650 C   0  0  0  0  0  0  0  0  0  0  0  0
   -1.8270  -18.3220  -11.3170 C   0  0  0  0  0  0  0  0  0  0  0  0
   -1.8950  -19.4460  -10.7230 O   0  0  0  0  0  0  0  0  0  0  0  0
   -2.8270  -17.9170  -11.9920 O   0  0  0  0  0  0  0  0  0  0  0  0
  1  2  1  0  0  0  0
  1 15  1  0  0  0  0
  2  3  1  0  0  0  0
  3 11  1  0  0  0  0
  4  5  1  0  0  0  0
  4 13  1  0  0  0  0
  4 11  2  0  0  0  0
  5  6  2  0  0  0  0
  6  7  2  0  0  0  0
  6  8  1  0  0  0  0
  8  9  1  0  0  0  0
  9 11  1  0  0  0  0
  9 10  2  0  0  0  0
 12 13  2  0  0  0  0
 13 14  1  0  0  0  0
 15 16  1  0  0  0  0
 16 17  2  0  0  0  0
 16 25  1  0  0  0  0
 17 18  1  0  0  0  0
 18 19  2  0  0  0  0
 18 23  1  0  0  0  0
 19 20  1  0  0  0  0
 20 21  2  0  0  0  0
 21 26  1  0  0  0  0
 21 22  1  0  0  0  0
 22 23  2  0  0  0  0
 23 24  1  0  0  0  0
 24 25  2  0  0  0  0
 26 28  2  0  0  0  0
 26 27  1  0  0  0  0
M  END
>  <COMPND>
    UNNAMED

>  <AUTHOR>
    GENERATED BY OPEN BABEL 2.4.90

>  <MASTER>
        0    0    0    0    0    0    0    0   28    0   28    0

