__3w75_A_rec_2e6f_oxc_lig_min.pdb
 OpenBabel10201914483D

 11 11  0  0  0  0  0  0  0  0999 V2000
    5.5190  -10.6820  -13.0700 N   0  0  0  0  0  4  0  0  0  0  0  0
    4.4440  -11.1490  -13.7540 C   0  0  0  0  0  0  0  0  0  0  0  0
    3.5340  -10.3600  -14.1090 O   0  0  0  0  0  0  0  0  0  0  0  0
    4.3720  -12.4640  -14.0490 N   0  0  0  0  0  0  0  0  0  0  0  0
    5.3790  -13.2750  -13.6450 C   0  0  0  0  0  0  0  0  0  0  0  0
    6.4490  -12.8210  -12.9510 N   0  0  0  0  0  0  0  0  0  0  0  0
    6.5240  -11.5020  -12.6650 C   0  0  0  0  0  0  0  0  0  0  0  0
    7.4950  -11.0440  -12.0240 O   0  0  0  0  0  0  0  0  0  0  0  0
    5.2700  -14.7390  -13.8860 C   0  0  0  0  0  0  0  0  0  0  0  0
    6.2120  -15.4290  -14.3310 O   0  0  0  0  0  0  0  0  0  0  0  0
    4.1580  -15.2100  -13.5430 O   0  0  0  0  0  0  0  0  0  0  0  0
  1  2  2  0  0  0  0
  1  7  2  0  0  0  0
  2  3  2  0  0  0  0
  2  4  1  0  0  0  0
  4  5  2  0  0  0  0
  5  9  1  0  0  0  0
  5  6  1  0  0  0  0
  6  7  1  0  0  0  0
  7  8  2  0  0  0  0
  9 10  2  0  0  0  0
  9 11  1  0  0  0  0
M  END
>  <COMPND>
    UNNAMED

>  <AUTHOR>
    GENERATED BY OPEN BABEL 2.4.90

>  <MASTER>
        0    0    0    0    0    0    0    0   11    0   11    0

