__3w75_A_rec_3w7g_w7g_lig_min.pdb
 OpenBabel10201912313D

 21 22  0  0  0  0  0  0  0  0999 V2000
    5.8240  -13.4320  -14.1400 C   0  0  0  0  0  0  0  0  0  0  0  0
    5.6160  -12.5700  -15.2180 N   0  0  0  0  0  0  0  0  0  0  0  0
    5.9900  -11.2640  -15.1390 C   0  0  0  0  0  0  0  0  0  0  0  0
    5.7480  -10.4820  -16.0640 O   0  0  0  0  0  0  0  0  0  0  0  0
    6.6060  -10.8050  -13.9940 N   0  0  0  0  0  0  0  0  0  0  0  0
    6.8930  -11.6750  -12.9170 C   0  0  0  0  0  0  0  0  0  0  0  0
    7.4800  -11.1320  -11.9590 O   0  0  0  0  0  0  0  0  0  0  0  0
    6.4430  -13.0150  -12.9930 C   0  0  0  0  0  0  0  0  0  0  0  0
    4.0720  -14.8270  -14.5600 O   0  0  0  0  0  0  0  0  0  0  0  0
    5.2960  -14.7450  -14.3750 C   0  0  0  0  0  0  0  0  0  0  0  0
    6.0900  -15.7140  -14.4990 O   0  0  0  0  0  0  0  0  0  0  0  0
    6.6060  -13.9760  -11.8890 C   0  0  0  0  0  0  0  0  0  0  0  0
    5.8390  -13.4150  -10.6950 C   0  0  0  0  0  0  0  0  0  0  0  0
    4.4340  -13.6380  -10.8870 C   0  0  0  0  0  0  0  0  0  0  0  0
    3.8890  -14.8920  -11.2790 C   0  0  0  0  0  0  0  0  0  0  0  0
    2.4980  -15.0530  -11.4940 C   0  0  0  0  0  0  0  0  0  0  0  0
    1.6520  -13.9560  -11.3260 C   0  0  0  0  0  0  0  0  0  0  0  0
    2.1240  -12.7280  -10.8930 C   0  0  0  0  0  0  0  0  0  0  0  0
    3.5320  -12.5650  -10.6710 C   0  0  0  0  0  0  0  0  0  0  0  0
    4.1770  -11.4000  -10.3530 O   0  0  0  0  0  0  0  0  0  0  0  0
    3.3260  -10.2010  -10.0330 C   0  0  0  0  0  0  0  0  0  0  0  0
  1  2  1  0  0  0  0
  1 10  1  0  0  0  0
  1  8  2  0  0  0  0
  2  3  2  0  0  0  0
  3  4  2  0  0  0  0
  3  5  1  0  0  0  0
  5  6  1  0  0  0  0
  6  8  1  0  0  0  0
  6  7  2  0  0  0  0
  8 12  1  0  0  0  0
  9 10  2  0  0  0  0
 10 11  1  0  0  0  0
 12 13  1  0  0  0  0
 13 14  1  0  0  0  0
 14 19  2  0  0  0  0
 14 15  1  0  0  0  0
 15 16  2  0  0  0  0
 16 17  1  0  0  0  0
 17 18  2  0  0  0  0
 18 19  1  0  0  0  0
 19 20  1  0  0  0  0
 20 21  1  0  0  0  0
M  END
>  <COMPND>
    UNNAMED

>  <AUTHOR>
    GENERATED BY OPEN BABEL 2.4.90

>  <MASTER>
        0    0    0    0    0    0    0    0   21    0   21    0

