__3w75_A_rec_3w7o_w7o_lig_min.pdb
 OpenBabel10201914173D

 22 23  0  0  0  0  0  0  0  0999 V2000
    6.5950  -13.1380  -13.2180 C   0  0  0  0  0  0  0  0  0  0  0  0
    7.1650  -11.8550  -13.2540 C   0  0  0  0  0  0  0  0  0  0  0  0
    7.8840  -11.3510  -12.3890 O   0  0  0  0  0  0  0  0  0  0  0  0
    6.8330  -10.9730  -14.3020 N   0  0  0  0  0  0  0  0  0  0  0  0
    6.0350  -11.3640  -15.3530 C   0  0  0  0  0  0  0  0  0  0  0  0
    5.8030  -10.5480  -16.2270 O   0  0  0  0  0  0  0  0  0  0  0  0
    5.4340  -12.6010  -15.3420 N   0  0  0  0  0  0  0  0  0  0  0  0
    5.7580  -13.5140  -14.2410 C   0  0  0  0  0  0  0  0  0  0  0  0
    5.0290  -14.7700  -14.3330 C   0  0  0  0  0  0  0  0  0  0  0  0
    3.7760  -14.7390  -14.3820 O   0  0  0  0  0  0  0  0  0  0  0  0
    5.6260  -15.8280  -14.5000 O   0  0  0  0  0  0  0  0  0  0  0  0
    6.8420  -14.0670  -12.0290 C   0  0  0  0  0  0  0  0  0  0  0  0
    6.2900  -13.4040  -10.7160 C   0  0  0  0  0  0  0  0  0  0  0  0
    2.5710  -13.5700  -11.1080 C   0  0  0  0  0  0  0  0  0  0  0  0
    3.9150  -14.0160  -11.0390 C   0  0  0  0  0  0  0  0  0  0  0  0
    2.3010  -12.2000  -10.9950 C   0  0  0  0  0  0  0  0  0  0  0  0
    3.2860  -11.2730  -10.8230 C   0  0  0  0  0  0  0  0  0  0  0  0
    4.5950  -11.7110  -10.7060 C   0  0  0  0  0  0  0  0  0  0  0  0
    4.9060  -13.0620  -10.7890 C   0  0  0  0  0  0  0  0  0  0  0  0
    1.7650  -15.6810  -11.4280 O   0  0  0  0  0  0  0  0  0  0  0  0
    1.5120  -14.4560  -11.2830 C   0  0  0  0  0  0  0  0  0  0  0  0
    0.2650  -14.0090  -11.1750 O   0  0  0  0  0  0  0  0  0  0  0  0
  1  8  2  0  0  0  0
  1  2  1  0  0  0  0
  1 12  1  0  0  0  0
  2  4  1  0  0  0  0
  2  3  2  0  0  0  0
  4  5  2  0  0  0  0
  5  6  2  0  0  0  0
  5  7  1  0  0  0  0
  7  8  1  0  0  0  0
  8  9  1  0  0  0  0
  9 10  2  0  0  0  0
  9 11  1  0  0  0  0
 12 13  1  0  0  0  0
 13 19  1  0  0  0  0
 14 16  2  0  0  0  0
 14 21  1  0  0  0  0
 14 15  1  0  0  0  0
 15 19  2  0  0  0  0
 16 17  1  0  0  0  0
 17 18  2  0  0  0  0
 18 19  1  0  0  0  0
 20 21  2  0  0  0  0
 21 22  1  0  0  0  0
M  END
>  <COMPND>
    UNNAMED

>  <AUTHOR>
    GENERATED BY OPEN BABEL 2.4.90

>  <MASTER>
        0    0    0    0    0    0    0    0   22    0   22    0

