__3w7c_A_rec_3w88_w88_lig_min.pdb
 OpenBabel10201915223D

 28 30  0  0  0  0  0  0  0  0999 V2000
    5.7990  -14.1830  -11.1950 C   0  0  0  0  0  0  0  0  0  0  0  0
    7.1950  -13.8410  -11.3760 C   0  0  0  0  0  0  0  0  0  0  0  0
    7.6960  -14.1480  -12.8240 C   0  0  0  0  0  0  0  0  0  0  0  0
    6.0840  -13.5870  -14.7130 C   0  0  0  0  0  0  0  0  0  0  0  0
    5.4900  -12.6430  -15.5810 N   0  0  0  0  0  0  0  0  0  0  0  0
    5.9950  -11.3530  -15.6250 C   0  0  0  0  0  0  0  0  0  0  0  0
    5.4810  -10.5440  -16.4290 O   0  0  0  0  0  0  0  0  0  0  0  0
    6.9190  -10.9740  -14.7240 N   0  0  0  0  0  0  0  0  0  0  0  0
    7.5550  -11.8730  -13.8360 C   0  0  0  0  0  0  0  0  0  0  0  0
    8.4300  -11.4080  -13.0860 O   0  0  0  0  0  0  0  0  0  0  0  0
    7.0620  -13.1990  -13.8200 C   0  0  0  0  0  0  0  0  0  0  0  0
    4.1880  -14.9030  -14.6960 O   0  0  0  0  0  0  0  0  0  0  0  0
    5.4450  -14.9000  -14.6840 C   0  0  0  0  0  0  0  0  0  0  0  0
    6.1660  -15.9120  -14.7430 O   0  0  0  0  0  0  0  0  0  0  0  0
    5.4950  -14.7430   -9.7130 C   0  0  0  0  0  0  0  0  0  0  0  0
    4.4110  -15.6680   -9.7240 C   0  0  0  0  0  0  0  0  0  0  0  0
    3.3460  -15.3960  -10.5890 C   0  0  0  0  0  0  0  0  0  0  0  0
    2.2060  -16.2180  -10.6650 C   0  0  0  0  0  0  0  0  0  0  0  0
    1.1450  -15.8880  -11.5710 C   0  0  0  0  0  0  0  0  0  0  0  0
   -0.0020  -16.7190  -11.6650 C   0  0  0  0  0  0  0  0  0  0  0  0
   -0.0520  -17.8770  -10.8550 C   0  0  0  0  0  0  0  0  0  0  0  0
    1.0240  -18.2010   -9.9510 C   0  0  0  0  0  0  0  0  0  0  0  0
    2.1770  -17.3830   -9.8480 C   0  0  0  0  0  0  0  0  0  0  0  0
    3.2640  -17.6660   -8.9470 C   0  0  0  0  0  0  0  0  0  0  0  0
    4.3800  -16.7960   -8.8800 C   0  0  0  0  0  0  0  0  0  0  0  0
   -1.2000  -18.7060  -10.9310 C   0  0  0  0  0  0  0  0  0  0  0  0
   -1.2640  -19.7890  -10.2640 O   0  0  0  0  0  0  0  0  0  0  0  0
   -2.2020  -18.3490  -11.6300 O   0  0  0  0  0  0  0  0  0  0  0  0
  1  2  1  0  0  0  0
  1 15  1  0  0  0  0
  2  3  1  0  0  0  0
  3 11  1  0  0  0  0
  4  5  1  0  0  0  0
  4 13  1  0  0  0  0
  4 11  2  0  0  0  0
  5  6  2  0  0  0  0
  6  7  2  0  0  0  0
  6  8  1  0  0  0  0
  8  9  1  0  0  0  0
  9 11  1  0  0  0  0
  9 10  2  0  0  0  0
 12 13  2  0  0  0  0
 13 14  1  0  0  0  0
 15 16  1  0  0  0  0
 16 17  2  0  0  0  0
 16 25  1  0  0  0  0
 17 18  1  0  0  0  0
 18 19  2  0  0  0  0
 18 23  1  0  0  0  0
 19 20  1  0  0  0  0
 20 21  2  0  0  0  0
 21 26  1  0  0  0  0
 21 22  1  0  0  0  0
 22 23  2  0  0  0  0
 23 24  1  0  0  0  0
 24 25  2  0  0  0  0
 26 28  2  0  0  0  0
 26 27  1  0  0  0  0
M  END
>  <COMPND>
    UNNAMED

>  <AUTHOR>
    GENERATED BY OPEN BABEL 2.4.90

>  <MASTER>
        0    0    0    0    0    0    0    0   28    0   28    0

