__3w7c_A_rec_3w7c_w7c_lig_min.pdb
 OpenBabel10201915083D

 25 27  0  0  0  0  0  0  0  0999 V2000
    7.0400  -13.9330  -12.1210 C   0  0  0  0  0  0  0  0  0  0  0  0
    5.9040  -13.6930  -14.2040 C   0  0  0  0  0  0  0  0  0  0  0  0
    5.3670  -12.8880  -15.2650 N   0  0  0  0  0  0  0  0  0  0  0  0
    5.6720  -11.5320  -15.2770 C   0  0  0  0  0  0  0  0  0  0  0  0
    5.2150  -10.8100  -16.1590 O   0  0  0  0  0  0  0  0  0  0  0  0
    6.4260  -10.9960  -14.2660 N   0  0  0  0  0  0  0  0  0  0  0  0
    6.9040  -11.7620  -13.1590 C   0  0  0  0  0  0  0  0  0  0  0  0
    7.5890  -11.1770  -12.3230 O   0  0  0  0  0  0  0  0  0  0  0  0
    6.6420  -13.1200  -13.1460 C   0  0  0  0  0  0  0  0  0  0  0  0
    6.1850  -15.9870  -14.7430 O   0  0  0  0  0  0  0  0  0  0  0  0
    5.4800  -15.0670  -14.2700 C   0  0  0  0  0  0  0  0  0  0  0  0
    4.3150  -15.2850  -13.9290 O   0  0  0  0  0  0  0  0  0  0  0  0
    6.3880  -13.5210  -10.7510 C   0  0  0  0  0  0  0  0  0  0  0  0
    5.1060  -14.1730  -10.6790 C   0  0  0  0  0  0  0  0  0  0  0  0
    4.8820  -15.4880  -10.2850 C   0  0  0  0  0  0  0  0  0  0  0  0
    3.9910  -13.4250  -11.0720 C   0  0  0  0  0  0  0  0  0  0  0  0
    2.7210  -13.9410  -11.0940 C   0  0  0  0  0  0  0  0  0  0  0  0
    2.4910  -15.2540  -10.7420 C   0  0  0  0  0  0  0  0  0  0  0  0
    3.5670  -16.0210  -10.2540 C   0  0  0  0  0  0  0  0  0  0  0  0
    3.2840  -17.3380   -9.8850 C   0  0  0  0  0  0  0  0  0  0  0  0
    1.9880  -17.8490   -9.9780 C   0  0  0  0  0  0  0  0  0  0  0  0
    0.9140  -17.0560  -10.3850 C   0  0  0  0  0  0  0  0  0  0  0  0
    1.1740  -15.7470  -10.7670 C   0  0  0  0  0  0  0  0  0  0  0  0
    0.2230  -14.8090  -11.1630 O   0  0  0  0  0  0  0  0  0  0  0  0
   -0.8390  -15.2410  -11.9570 C   0  0  0  0  0  0  0  0  0  0  0  0
  1  9  1  0  0  0  0
  1 13  1  0  0  0  0
  2  3  1  0  0  0  0
  2 11  1  0  0  0  0
  2  9  2  0  0  0  0
  3  4  2  0  0  0  0
  4  5  2  0  0  0  0
  4  6  1  0  0  0  0
  6  7  1  0  0  0  0
  7  9  1  0  0  0  0
  7  8  2  0  0  0  0
 10 11  2  0  0  0  0
 11 12  1  0  0  0  0
 13 14  1  0  0  0  0
 14 16  2  0  0  0  0
 14 15  1  0  0  0  0
 15 19  2  0  0  0  0
 16 17  1  0  0  0  0
 17 18  2  0  0  0  0
 18 23  1  0  0  0  0
 18 19  1  0  0  0  0
 19 20  1  0  0  0  0
 20 21  2  0  0  0  0
 21 22  1  0  0  0  0
 22 23  2  0  0  0  0
 23 24  1  0  0  0  0
 24 25  1  0  0  0  0
M  END
>  <COMPND>
    UNNAMED

>  <AUTHOR>
    GENERATED BY OPEN BABEL 2.4.90

>  <MASTER>
        0    0    0    0    0    0    0    0   25    0   25    0

