__3w7d_A_rec_3w2k_kro_lig_min.pdb
 OpenBabel10201911513D

 21 22  0  0  0  0  0  0  0  0999 V2000
    5.5580  -13.4670  -14.2640 C   0  0  0  0  0  0  0  0  0  0  0  0
    5.4810  -12.6910  -15.4850 N   0  0  0  0  0  0  0  0  0  0  0  0
    5.8380  -11.3470  -15.4740 C   0  0  0  0  0  0  0  0  0  0  0  0
    5.8080  -10.6810  -16.5190 O   0  0  0  0  0  0  0  0  0  0  0  0
    6.3180  -10.8320  -14.2440 N   0  0  0  0  0  0  0  0  0  0  0  0
    6.3540  -11.5740  -13.0370 C   0  0  0  0  0  0  0  0  0  0  0  0
    6.7400  -10.9850  -11.9850 O   0  0  0  0  0  0  0  0  0  0  0  0
    5.8860  -12.8720  -13.0920 C   0  0  0  0  0  0  0  0  0  0  0  0
    5.7900  -15.8610  -14.4910 O   0  0  0  0  0  0  0  0  0  0  0  0
    4.9950  -14.8980  -14.4300 C   0  0  0  0  0  0  0  0  0  0  0  0
    3.7760  -14.9710  -14.5770 O   0  0  0  0  0  0  0  0  0  0  0  0
    5.8780  -13.6540  -11.9130 C   0  0  0  0  0  0  0  0  0  0  0  0
    4.7610  -13.1180  -10.9230 C   0  0  0  0  0  0  0  0  0  0  0  0
    3.7370  -13.8600  -11.0390 C   0  0  0  0  0  0  0  0  0  0  0  0
    3.9330  -15.1120  -10.4730 C   0  0  0  0  0  0  0  0  0  0  0  0
    3.0050  -16.0750  -10.5880 C   0  0  0  0  0  0  0  0  0  0  0  0
    3.2280  -17.3390   -9.9300 C   0  0  0  0  0  0  0  0  0  0  0  0
    1.7960  -15.7540  -11.2580 C   0  0  0  0  0  0  0  0  0  0  0  0
    0.8500  -16.7130  -11.3350 F   0  0  0  0  0  0  0  0  0  0  0  0
    1.5460  -14.5030  -11.8540 C   0  0  0  0  0  0  0  0  0  0  0  0
    2.5580  -13.5160  -11.7380 C   0  0  0  0  0  0  0  0  0  0  0  0
  1  2  1  0  0  0  0
  1 10  1  0  0  0  0
  1  8  2  0  0  0  0
  2  3  2  0  0  0  0
  3  4  2  0  0  0  0
  3  5  1  0  0  0  0
  5  6  1  0  0  0  0
  6  8  1  0  0  0  0
  6  7  2  0  0  0  0
  8 12  1  0  0  0  0
  9 10  2  0  0  0  0
 10 11  1  0  0  0  0
 12 13  1  0  0  0  0
 13 14  1  0  0  0  0
 14 21  2  0  0  0  0
 14 15  1  0  0  0  0
 15 16  2  0  0  0  0
 16 18  1  0  0  0  0
 16 17  1  0  0  0  0
 18 20  2  0  0  0  0
 18 19  1  0  0  0  0
 20 21  1  0  0  0  0
M  END
>  <COMPND>
    UNNAMED

>  <AUTHOR>
    GENERATED BY OPEN BABEL 2.4.90

>  <MASTER>
        0    0    0    0    0    0    0    0   21    0   21    0

