__3w7d_A_rec_3w7k_w7k_lig_min.pdb
 OpenBabel10201912553D

 27 29  0  0  0  0  0  0  0  0999 V2000
    5.7830  -12.9520  -10.6220 C   0  0  0  0  0  0  0  0  0  0  0  0
    4.5450  -13.5810  -10.5730 C   0  0  0  0  0  0  0  0  0  0  0  0
    4.4620  -14.9500  -10.3450 C   0  0  0  0  0  0  0  0  0  0  0  0
    3.2190  -15.5710  -10.2970 C   0  0  0  0  0  0  0  0  0  0  0  0
    3.1390  -16.9400  -10.0710 C   0  0  0  0  0  0  0  0  0  0  0  0
    1.8970  -17.5650  -10.0220 C   0  0  0  0  0  0  0  0  0  0  0  0
    0.7370  -16.8220  -10.2010 C   0  0  0  0  0  0  0  0  0  0  0  0
    0.8160  -15.4540  -10.4290 C   0  0  0  0  0  0  0  0  0  0  0  0
    2.0560  -14.8270  -10.4770 C   0  0  0  0  0  0  0  0  0  0  0  0
    2.1330  -13.4570  -10.7050 C   0  0  0  0  0  0  0  0  0  0  0  0
    3.3790  -12.8470  -10.7510 C   0  0  0  0  0  0  0  0  0  0  0  0
   -0.4770  -17.4350  -10.1540 O   0  0  0  0  0  0  0  0  0  0  0  0
   -0.2960  -18.8530  -10.1800 C   0  0  0  0  0  0  0  0  0  0  0  0
    3.5260  -11.5140  -10.9690 O   0  0  0  0  0  0  0  0  0  0  0  0
    2.3990  -10.8150  -10.4370 C   0  0  0  0  0  0  0  0  0  0  0  0
    6.5900  -13.5040  -11.7990 C   0  0  0  0  0  0  0  0  0  0  0  0
    5.6850  -13.5140  -14.0280 C   0  0  0  0  0  0  0  0  0  0  0  0
    5.3330  -12.8340  -15.2000 N   0  0  0  0  0  0  0  0  0  0  0  0
    5.5420  -11.4540  -15.2910 C   0  0  0  0  0  0  0  0  0  0  0  0
    5.2340  -10.8500  -16.3180 O   0  0  0  0  0  0  0  0  0  0  0  0
    6.1040  -10.7610  -14.2120 N   0  0  0  0  0  0  0  0  0  0  0  0
    6.4530  -11.4490  -13.0440 C   0  0  0  0  0  0  0  0  0  0  0  0
    6.9450  -10.8300  -12.1020 O   0  0  0  0  0  0  0  0  0  0  0  0
    6.2420  -12.8210  -12.9590 C   0  0  0  0  0  0  0  0  0  0  0  0
    6.4230  -15.6750  -14.1480 O   0  0  0  0  0  0  0  0  0  0  0  0
    5.4780  -14.8840  -13.9350 C   0  0  0  0  0  0  0  0  0  0  0  0
    4.3480  -15.3280  -13.6380 O   0  0  0  0  0  0  0  0  0  0  0  0
  1 16  1  0  0  0  0
  1  2  1  0  0  0  0
  2 11  2  0  0  0  0
  2  3  1  0  0  0  0
  3  4  2  0  0  0  0
  4  9  1  0  0  0  0
  4  5  1  0  0  0  0
  5  6  2  0  0  0  0
  6  7  1  0  0  0  0
  7  8  2  0  0  0  0
  7 12  1  0  0  0  0
  8  9  1  0  0  0  0
  9 10  2  0  0  0  0
 10 11  1  0  0  0  0
 11 14  1  0  0  0  0
 12 13  1  0  0  0  0
 14 15  1  0  0  0  0
 16 24  1  0  0  0  0
 17 18  1  0  0  0  0
 17 26  1  0  0  0  0
 17 24  2  0  0  0  0
 18 19  2  0  0  0  0
 19 20  2  0  0  0  0
 19 21  1  0  0  0  0
 21 22  1  0  0  0  0
 22 24  1  0  0  0  0
 22 23  2  0  0  0  0
 25 26  2  0  0  0  0
 26 27  1  0  0  0  0
M  END
>  <COMPND>
    UNNAMED

>  <AUTHOR>
    GENERATED BY OPEN BABEL 2.4.90

>  <MASTER>
        0    0    0    0    0    0    0    0   27    0   27    0

