__3w7d_A_rec_2e6d_fum_lig_min.pdb
 OpenBabel10201913383D

  8  7  0  0  0  0  0  0  0  0999 V2000
    5.3080  -12.1050  -14.5730 C   0  0  0  0  0  0  0  0  0  0  0  0
    5.4450  -13.2820  -13.9680 C   0  0  0  0  0  0  0  0  0  0  0  0
    4.1890  -10.1790  -13.7100 O   0  0  0  0  0  0  0  0  0  0  0  0
    5.1790  -10.9250  -13.6790 C   0  0  0  0  0  0  0  0  0  0  0  0
    6.1310  -10.7130  -12.8970 O   0  0  0  0  0  0  0  0  0  0  0  0
    5.6370  -14.5440  -14.7140 C   0  0  0  0  0  0  0  0  0  0  0  0
    5.0640  -15.5330  -14.2550 O   0  0  0  0  0  0  0  0  0  0  0  0
    6.3970  -14.6160  -15.7200 O   0  0  0  0  0  0  0  0  0  0  0  0
  1  4  1  0  0  0  0
  1  2  2  0  0  0  0
  2  6  1  0  0  0  0
  3  4  2  0  0  0  0
  4  5  1  0  0  0  0
  6  8  2  0  0  0  0
  6  7  1  0  0  0  0
M  END
>  <COMPND>
    UNNAMED

>  <AUTHOR>
    GENERATED BY OPEN BABEL 2.4.90

>  <MASTER>
        0    0    0    0    0    0    0    0    8    0    8    0

