__3w7d_A_rec_3w7l_w7l_lig_min.pdb
 OpenBabel10201912483D

 25 27  0  0  0  0  0  0  0  0999 V2000
    5.8760  -13.6970  -12.0330 C   0  0  0  0  0  0  0  0  0  0  0  0
    5.4380  -13.4110  -14.3810 C   0  0  0  0  0  0  0  0  0  0  0  0
    5.3730  -12.6620  -15.5340 N   0  0  0  0  0  0  0  0  0  0  0  0
    5.9390  -11.3560  -15.6220 C   0  0  0  0  0  0  0  0  0  0  0  0
    5.8380  -10.6510  -16.6300 O   0  0  0  0  0  0  0  0  0  0  0  0
    6.4810  -10.8690  -14.4800 N   0  0  0  0  0  0  0  0  0  0  0  0
    6.5110  -11.6100  -13.2550 C   0  0  0  0  0  0  0  0  0  0  0  0
    7.0470  -11.0440  -12.2800 O   0  0  0  0  0  0  0  0  0  0  0  0
    5.9650  -12.9290  -13.2230 C   0  0  0  0  0  0  0  0  0  0  0  0
    5.3890  -15.7580  -14.3980 O   0  0  0  0  0  0  0  0  0  0  0  0
    4.7660  -14.7120  -14.4780 C   0  0  0  0  0  0  0  0  0  0  0  0
    3.5650  -14.7060  -14.6500 O   0  0  0  0  0  0  0  0  0  0  0  0
    4.8730  -13.0340  -11.0320 C   0  0  0  0  0  0  0  0  0  0  0  0
    3.5350  -13.3430  -11.3360 C   0  0  0  0  0  0  0  0  0  0  0  0
    2.6830  -12.4210  -12.0520 C   0  0  0  0  0  0  0  0  0  0  0  0
    1.3610  -12.7160  -12.4510 C   0  0  0  0  0  0  0  0  0  0  0  0
    0.8510  -13.9980  -12.1640 C   0  0  0  0  0  0  0  0  0  0  0  0
    1.6470  -14.9340  -11.4550 C   0  0  0  0  0  0  0  0  0  0  0  0
    1.1190  -16.2010  -11.1950 C   0  0  0  0  0  0  0  0  0  0  0  0
    2.9700  -14.6610  -11.0620 C   0  0  0  0  0  0  0  0  0  0  0  0
    3.6910  -15.6400  -10.3620 C   0  0  0  0  0  0  0  0  0  0  0  0
    3.1140  -16.8900  -10.0190 C   0  0  0  0  0  0  0  0  0  0  0  0
    1.8610  -17.1560  -10.4700 C   0  0  0  0  0  0  0  0  0  0  0  0
    1.3330  -18.4270  -10.1870 O   0  0  0  0  0  0  0  0  0  0  0  0
   -0.0790  -18.5810  -10.2970 C   0  0  0  0  0  0  0  0  0  0  0  0
  1  9  1  0  0  0  0
  1 13  1  0  0  0  0
  2  3  1  0  0  0  0
  2 11  1  0  0  0  0
  2  9  2  0  0  0  0
  3  4  2  0  0  0  0
  4  5  2  0  0  0  0
  4  6  1  0  0  0  0
  6  7  1  0  0  0  0
  7  9  1  0  0  0  0
  7  8  2  0  0  0  0
 10 11  2  0  0  0  0
 11 12  1  0  0  0  0
 13 14  1  0  0  0  0
 14 15  2  0  0  0  0
 14 20  1  0  0  0  0
 15 16  1  0  0  0  0
 16 17  2  0  0  0  0
 17 18  1  0  0  0  0
 18 20  2  0  0  0  0
 18 19  1  0  0  0  0
 19 23  2  0  0  0  0
 20 21  1  0  0  0  0
 21 22  2  0  0  0  0
 22 23  1  0  0  0  0
 23 24  1  0  0  0  0
 24 25  1  0  0  0  0
M  END
>  <COMPND>
    UNNAMED

>  <AUTHOR>
    GENERATED BY OPEN BABEL 2.4.90

>  <MASTER>
        0    0    0    0    0    0    0    0   25    0   25    0

