__3w7d_A_rec_3w23_3ro_lig_docked.pdb
 OpenBabel10201916593D

 20 21  0  0  0  0  0  0  0  0999 V2000
    5.9580  -13.5990  -14.7060 C   0  0  0  0  0  0  0  0  0  0  0  0
    6.0680  -13.0200  -16.0030 N   0  0  0  0  0  0  0  0  0  0  0  0
    6.6510  -11.7710  -16.2270 C   0  0  0  0  0  0  0  0  0  0  0  0
    6.6840  -11.2340  -17.3460 O   0  0  0  0  0  0  0  0  0  0  0  0
    7.1940  -11.1890  -15.1330 N   0  0  0  0  0  0  0  0  0  0  0  0
    7.1840  -11.7110  -13.8240 C   0  0  0  0  0  0  0  0  0  0  0  0
    7.7170  -11.0470  -12.9130 O   0  0  0  0  0  0  0  0  0  0  0  0
    6.5500  -12.9740  -13.6550 C   0  0  0  0  0  0  0  0  0  0  0  0
    3.9410  -14.6940  -14.8260 O   0  0  0  0  0  0  0  0  0  0  0  0
    5.1450  -14.9260  -14.6380 C   0  0  0  0  0  0  0  0  0  0  0  0
    5.8330  -15.9330  -14.5730 O   0  0  0  0  0  0  0  0  0  0  0  0
    6.4970  -13.4700  -12.3130 C   0  0  0  0  0  0  0  0  0  0  0  0
    5.2670  -12.8660  -11.4260 C   0  0  0  0  0  0  0  0  0  0  0  0
    4.2190  -13.6710  -11.3530 C   0  0  0  0  0  0  0  0  0  0  0  0
    4.3290  -14.9060  -10.6650 C   0  0  0  0  0  0  0  0  0  0  0  0
    3.1580  -15.6790  -10.6810 C   0  0  0  0  0  0  0  0  0  0  0  0
    3.2610  -17.2900   -9.9120 Cl  0  0  0  0  0  0  0  0  0  0  0  0
    1.9520  -15.2970  -11.2900 C   0  0  0  0  0  0  0  0  0  0  0  0
    1.8500  -14.0630  -11.8880 C   0  0  0  0  0  0  0  0  0  0  0  0
    2.9860  -13.2200  -11.8900 C   0  0  0  0  0  0  0  0  0  0  0  0
  1  2  1  0  0  0  0
  1 10  1  0  0  0  0
  1  8  2  0  0  0  0
  2  3  2  0  0  0  0
  3  4  2  0  0  0  0
  3  5  1  0  0  0  0
  5  6  1  0  0  0  0
  6  8  1  0  0  0  0
  6  7  2  0  0  0  0
  8 12  1  0  0  0  0
  9 10  2  0  0  0  0
 10 11  1  0  0  0  0
 12 13  1  0  0  0  0
 13 14  1  0  0  0  0
 14 20  2  0  0  0  0
 14 15  1  0  0  0  0
 15 16  2  0  0  0  0
 16 18  1  0  0  0  0
 16 17  1  0  0  0  0
 18 19  2  0  0  0  0
 19 20  1  0  0  0  0
M  END
>  <MODEL>
      10

>  <COMPND>
    UNNAMED

>  <AUTHOR>
    GENERATED BY OPEN BABEL 2.4.90

>  <MASTER>
        0    0    0    0    0    0    0    0   20    0   20    0

