__3w7d_A_rec_3w85_w85_lig_min.pdb
 OpenBabel10201914063D

 23 24  0  0  0  0  0  0  0  0999 V2000
    5.7150  -13.5300  -14.3860 C   0  0  0  0  0  0  0  0  0  0  0  0
    5.5000  -12.7200  -15.5480 N   0  0  0  0  0  0  0  0  0  0  0  0
    5.8560  -11.3770  -15.5630 C   0  0  0  0  0  0  0  0  0  0  0  0
    5.6270  -10.7050  -16.5640 O   0  0  0  0  0  0  0  0  0  0  0  0
    6.4430  -10.7920  -14.4460 N   0  0  0  0  0  0  0  0  0  0  0  0
    6.6760  -11.5750  -13.3140 C   0  0  0  0  0  0  0  0  0  0  0  0
    7.2050  -11.0400  -12.3410 O   0  0  0  0  0  0  0  0  0  0  0  0
    6.2960  -12.9420  -13.2570 C   0  0  0  0  0  0  0  0  0  0  0  0
    3.9770  -15.1050  -14.5110 O   0  0  0  0  0  0  0  0  0  0  0  0
    5.2640  -14.9120  -14.4620 C   0  0  0  0  0  0  0  0  0  0  0  0
    6.1180  -15.8870  -14.5070 O   0  0  0  0  0  0  0  0  0  0  0  0
    6.5490  -13.6940  -12.0440 C   0  0  0  0  0  0  0  0  0  0  0  0
    5.6060  -13.2800  -10.8520 C   0  0  0  0  0  0  0  0  0  0  0  0
    4.2870  -13.7130  -11.0460 C   0  0  0  0  0  0  0  0  0  0  0  0
    3.2390  -12.8480  -11.3740 C   0  0  0  0  0  0  0  0  0  0  0  0
    3.9830  -15.0910  -10.9740 C   0  0  0  0  0  0  0  0  0  0  0  0
    2.6840  -15.5960  -11.1800 C   0  0  0  0  0  0  0  0  0  0  0  0
    1.6500  -14.7030  -11.4670 C   0  0  0  0  0  0  0  0  0  0  0  0
    1.9050  -13.3310  -11.5720 C   0  0  0  0  0  0  0  0  0  0  0  0
    0.8220  -12.4490  -11.8890 C   0  0  0  0  0  0  0  0  0  0  0  0
   -0.3020  -12.8800  -12.1870 O   0  0  0  0  0  0  0  0  0  0  0  0
    1.0940  -11.0990  -11.8540 O   0  0  0  0  0  0  0  0  0  0  0  0
    0.0340  -10.2480  -12.4290 C   0  0  0  0  0  0  0  0  0  0  0  0
  1  2  1  0  0  0  0
  1 10  1  0  0  0  0
  1  8  2  0  0  0  0
  2  3  2  0  0  0  0
  3  4  2  0  0  0  0
  3  5  1  0  0  0  0
  5  6  1  0  0  0  0
  6  8  1  0  0  0  0
  6  7  2  0  0  0  0
  8 12  1  0  0  0  0
  9 10  2  0  0  0  0
 10 11  1  0  0  0  0
 12 13  1  0  0  0  0
 13 14  1  0  0  0  0
 14 16  2  0  0  0  0
 14 15  1  0  0  0  0
 15 19  2  0  0  0  0
 16 17  1  0  0  0  0
 17 18  2  0  0  0  0
 18 19  1  0  0  0  0
 19 20  1  0  0  0  0
 20 21  2  0  0  0  0
 20 22  1  0  0  0  0
 22 23  1  0  0  0  0
M  END
>  <COMPND>
    UNNAMED

>  <AUTHOR>
    GENERATED BY OPEN BABEL 2.4.90

>  <MASTER>
        0    0    0    0    0    0    0    0   23    0   23    0

