__3w7d_A_rec_3w22_2ro_lig_min.pdb
 OpenBabel10201911403D

 23 24  0  0  0  0  0  0  0  0999 V2000
    5.7340  -13.5070  -14.4760 C   0  0  0  0  0  0  0  0  0  0  0  0
    5.4600  -12.6740  -15.5940 N   0  0  0  0  0  0  0  0  0  0  0  0
    5.9520  -11.3610  -15.6750 C   0  0  0  0  0  0  0  0  0  0  0  0
    5.7430  -10.6350  -16.6570 O   0  0  0  0  0  0  0  0  0  0  0  0
    6.6910  -10.8840  -14.6110 N   0  0  0  0  0  0  0  0  0  0  0  0
    6.9100  -11.6480  -13.4290 C   0  0  0  0  0  0  0  0  0  0  0  0
    7.5340  -11.0770  -12.5060 O   0  0  0  0  0  0  0  0  0  0  0  0
    6.4130  -12.9900  -13.3550 C   0  0  0  0  0  0  0  0  0  0  0  0
    5.7620  -15.8650  -14.5480 O   0  0  0  0  0  0  0  0  0  0  0  0
    5.1150  -14.8000  -14.5220 C   0  0  0  0  0  0  0  0  0  0  0  0
    3.8560  -14.8260  -14.5210 O   0  0  0  0  0  0  0  0  0  0  0  0
    6.5960  -13.7980  -12.2540 C   0  0  0  0  0  0  0  0  0  0  0  0
    5.9450  -13.1240  -11.0050 C   0  0  0  0  0  0  0  0  0  0  0  0
    4.5680  -13.5190  -11.0810 C   0  0  0  0  0  0  0  0  0  0  0  0
    3.6080  -12.5600  -11.3840 C   0  0  0  0  0  0  0  0  0  0  0  0
    2.2440  -12.8810  -11.4960 C   0  0  0  0  0  0  0  0  0  0  0  0
    1.7590  -14.1970  -11.2960 C   0  0  0  0  0  0  0  0  0  0  0  0
    2.7470  -15.1560  -11.0220 C   0  0  0  0  0  0  0  0  0  0  0  0
    4.1060  -14.8110  -10.9200 C   0  0  0  0  0  0  0  0  0  0  0  0
    0.3070  -14.3980  -11.4920 C   0  0  0  0  0  0  0  0  0  0  0  0
   -0.5600  -13.7040  -10.3790 C   0  0  0  0  0  0  0  0  0  0  0  0
   -0.1120  -13.7090  -12.8490 C   0  0  0  0  0  0  0  0  0  0  0  0
   -0.0910  -15.9150  -11.5840 C   0  0  0  0  0  0  0  0  0  0  0  0
  1  2  1  0  0  0  0
  1 10  1  0  0  0  0
  1  8  2  0  0  0  0
  2  3  2  0  0  0  0
  3  4  2  0  0  0  0
  3  5  1  0  0  0  0
  5  6  1  0  0  0  0
  6  8  1  0  0  0  0
  6  7  2  0  0  0  0
  8 12  1  0  0  0  0
  9 10  2  0  0  0  0
 10 11  1  0  0  0  0
 12 13  1  0  0  0  0
 13 14  1  0  0  0  0
 14 15  2  0  0  0  0
 14 19  1  0  0  0  0
 15 16  1  0  0  0  0
 16 17  2  0  0  0  0
 17 20  1  0  0  0  0
 17 18  1  0  0  0  0
 18 19  2  0  0  0  0
 20 22  1  0  0  0  0
 20 21  1  0  0  0  0
 20 23  1  0  0  0  0
M  END
>  <COMPND>
    UNNAMED

>  <AUTHOR>
    GENERATED BY OPEN BABEL 2.4.90

>  <MASTER>
        0    0    0    0    0    0    0    0   23    0   23    0

