__3w7d_A_rec_3w1t_wro_lig_min.pdb
 OpenBabel10201913203D

 23 24  0  0  0  0  0  0  0  0999 V2000
    5.4740  -13.4820  -14.2250 C   0  0  0  0  0  0  0  0  0  0  0  0
    5.3980  -12.7340  -15.4010 N   0  0  0  0  0  0  0  0  0  0  0  0
    5.8320  -11.3820  -15.4200 C   0  0  0  0  0  0  0  0  0  0  0  0
    5.7110  -10.6590  -16.4050 O   0  0  0  0  0  0  0  0  0  0  0  0
    6.3110  -10.8530  -14.2190 N   0  0  0  0  0  0  0  0  0  0  0  0
    6.3320  -11.5730  -13.0020 C   0  0  0  0  0  0  0  0  0  0  0  0
    6.7180  -11.0370  -11.9630 O   0  0  0  0  0  0  0  0  0  0  0  0
    5.9150  -12.9410  -13.0280 C   0  0  0  0  0  0  0  0  0  0  0  0
    5.7760  -15.8250  -14.4640 O   0  0  0  0  0  0  0  0  0  0  0  0
    4.9860  -14.8760  -14.4140 C   0  0  0  0  0  0  0  0  0  0  0  0
    3.7560  -14.9390  -14.5880 O   0  0  0  0  0  0  0  0  0  0  0  0
    5.9440  -13.7010  -11.8680 C   0  0  0  0  0  0  0  0  0  0  0  0
    4.7960  -13.3110  -10.9110 C   0  0  0  0  0  0  0  0  0  0  0  0
    3.7770  -14.1760  -10.9320 C   0  0  0  0  0  0  0  0  0  0  0  0
    3.8750  -15.4740  -10.3080 C   0  0  0  0  0  0  0  0  0  0  0  0
    2.7790  -16.3550  -10.3990 C   0  0  0  0  0  0  0  0  0  0  0  0
    1.5990  -15.9690  -11.1110 C   0  0  0  0  0  0  0  0  0  0  0  0
    1.4820  -14.6940  -11.7060 C   0  0  0  0  0  0  0  0  0  0  0  0
    2.5790  -13.8020  -11.5970 C   0  0  0  0  0  0  0  0  0  0  0  0
    2.8220  -17.7110   -9.7780 C   0  0  0  0  0  0  0  0  0  0  0  0
    3.8640  -18.3510   -9.7620 F   0  0  0  0  0  0  0  0  0  0  0  0
    2.5530  -17.6010   -8.6100 F   0  0  0  0  0  0  0  0  0  0  0  0
    2.0490  -18.4470  -10.4170 F   0  0  0  0  0  0  0  0  0  0  0  0
  1  2  1  0  0  0  0
  1 10  1  0  0  0  0
  1  8  2  0  0  0  0
  2  3  2  0  0  0  0
  3  4  2  0  0  0  0
  3  5  1  0  0  0  0
  5  6  1  0  0  0  0
  6  8  1  0  0  0  0
  6  7  2  0  0  0  0
  8 12  1  0  0  0  0
  9 10  2  0  0  0  0
 10 11  1  0  0  0  0
 12 13  1  0  0  0  0
 13 14  1  0  0  0  0
 14 19  2  0  0  0  0
 14 15  1  0  0  0  0
 15 16  2  0  0  0  0
 16 17  1  0  0  0  0
 16 20  1  0  0  0  0
 17 18  2  0  0  0  0
 18 19  1  0  0  0  0
 20 23  1  0  0  0  0
 20 21  1  0  0  0  0
 20 22  1  0  0  0  0
M  END
>  <COMPND>
    UNNAMED

>  <AUTHOR>
    GENERATED BY OPEN BABEL 2.4.90

>  <MASTER>
        0    0    0    0    0    0    0    0   23    0   23    0

