__3w7d_A_rec_3w7d_w7d_lig_min.pdb
 OpenBabel10201912413D

 25 27  0  0  0  0  0  0  0  0999 V2000
    6.3710  -13.7120  -11.9420 C   0  0  0  0  0  0  0  0  0  0  0  0
    5.6410  -13.4870  -14.3140 C   0  0  0  0  0  0  0  0  0  0  0  0
    5.3650  -12.6900  -15.4660 N   0  0  0  0  0  0  0  0  0  0  0  0
    5.7530  -11.3990  -15.5210 C   0  0  0  0  0  0  0  0  0  0  0  0
    5.5460  -10.6840  -16.5150 O   0  0  0  0  0  0  0  0  0  0  0  0
    6.3710  -10.8730  -14.4260 N   0  0  0  0  0  0  0  0  0  0  0  0
    6.6630  -11.5510  -13.2230 C   0  0  0  0  0  0  0  0  0  0  0  0
    7.2860  -11.0450  -12.2810 O   0  0  0  0  0  0  0  0  0  0  0  0
    6.2920  -12.9130  -13.1960 C   0  0  0  0  0  0  0  0  0  0  0  0
    5.7920  -15.8230  -14.4730 O   0  0  0  0  0  0  0  0  0  0  0  0
    4.9910  -14.8620  -14.3680 C   0  0  0  0  0  0  0  0  0  0  0  0
    3.7660  -14.8670  -14.4110 O   0  0  0  0  0  0  0  0  0  0  0  0
    5.4740  -13.1590  -10.7900 C   0  0  0  0  0  0  0  0  0  0  0  0
    4.1950  -13.7090  -10.9120 C   0  0  0  0  0  0  0  0  0  0  0  0
    3.8330  -15.0530  -10.5550 C   0  0  0  0  0  0  0  0  0  0  0  0
    2.4740  -15.5690  -10.7610 C   0  0  0  0  0  0  0  0  0  0  0  0
    3.1540  -12.8840  -11.4130 C   0  0  0  0  0  0  0  0  0  0  0  0
    1.8610  -13.4290  -11.6590 C   0  0  0  0  0  0  0  0  0  0  0  0
    1.5140  -14.7160  -11.3200 C   0  0  0  0  0  0  0  0  0  0  0  0
    0.1530  -15.1710  -11.5640 C   0  0  0  0  0  0  0  0  0  0  0  0
   -0.0750  -16.4760  -11.1880 C   0  0  0  0  0  0  0  0  0  0  0  0
    0.8480  -17.3530  -10.6280 C   0  0  0  0  0  0  0  0  0  0  0  0
    2.1780  -16.8760  -10.3530 C   0  0  0  0  0  0  0  0  0  0  0  0
    3.1890  -17.5740   -9.8690 O   0  0  0  0  0  0  0  0  0  0  0  0
    2.8850  -18.3470   -8.6610 C   0  0  0  0  0  0  0  0  0  0  0  0
  1  9  1  0  0  0  0
  1 13  1  0  0  0  0
  2  3  1  0  0  0  0
  2 11  1  0  0  0  0
  2  9  2  0  0  0  0
  3  4  2  0  0  0  0
  4  5  2  0  0  0  0
  4  6  1  0  0  0  0
  6  7  1  0  0  0  0
  7  9  1  0  0  0  0
  7  8  2  0  0  0  0
 10 11  2  0  0  0  0
 11 12  1  0  0  0  0
 13 14  1  0  0  0  0
 14 17  2  0  0  0  0
 14 15  1  0  0  0  0
 15 16  2  0  0  0  0
 16 19  1  0  0  0  0
 16 23  1  0  0  0  0
 17 18  1  0  0  0  0
 18 19  2  0  0  0  0
 19 20  1  0  0  0  0
 20 21  2  0  0  0  0
 21 22  1  0  0  0  0
 22 23  2  0  0  0  0
 23 24  1  0  0  0  0
 24 25  1  0  0  0  0
M  END
>  <COMPND>
    UNNAMED

>  <AUTHOR>
    GENERATED BY OPEN BABEL 2.4.90

>  <MASTER>
        0    0    0    0    0    0    0    0   25    0   25    0

