__3w7g_B_rec_3w2m_zro_lig_docked.pdb
 OpenBabel10201917053D

 23 24  0  0  0  0  0  0  0  0999 V2000
    6.1230  -13.5510  -14.3740 C   0  0  0  0  0  0  0  0  0  0  0  0
    5.9740  -12.8580  -15.5620 N   0  0  0  0  0  0  0  0  0  0  0  0
    6.6070  -11.6670  -15.8060 C   0  0  0  0  0  0  0  0  0  0  0  0
    6.3770  -10.9890  -16.8550 O   0  0  0  0  0  0  0  0  0  0  0  0
    7.4260  -11.1570  -14.8510 N   0  0  0  0  0  0  0  0  0  0  0  0
    7.6010  -11.8010  -13.6110 C   0  0  0  0  0  0  0  0  0  0  0  0
    8.4120  -11.3250  -12.7980 O   0  0  0  0  0  0  0  0  0  0  0  0
    6.8780  -13.0090  -13.3930 C   0  0  0  0  0  0  0  0  0  0  0  0
    4.0590  -14.7430  -14.2230 O   0  0  0  0  0  0  0  0  0  0  0  0
    5.2810  -14.8340  -14.2640 C   0  0  0  0  0  0  0  0  0  0  0  0
    5.9480  -15.8360  -14.3370 O   0  0  0  0  0  0  0  0  0  0  0  0
    7.1020  -13.6620  -12.1600 C   0  0  0  0  0  0  0  0  0  0  0  0
    6.2510  -12.9920  -10.9870 C   0  0  0  0  0  0  0  0  0  0  0  0
    5.0190  -13.6360  -10.8630 C   0  0  0  0  0  0  0  0  0  0  0  0
    4.8910  -15.0110  -10.7760 C   0  0  0  0  0  0  0  0  0  0  0  0
    3.6340  -15.6620  -10.7020 C   0  0  0  0  0  0  0  0  0  0  0  0
    2.4230  -14.9450  -10.8970 C   0  0  0  0  0  0  0  0  0  0  0  0
    2.5470  -13.5420  -11.0410 C   0  0  0  0  0  0  0  0  0  0  0  0
    3.8140  -12.9040  -10.9750 C   0  0  0  0  0  0  0  0  0  0  0  0
    1.0910  -15.5910  -10.9790 C   0  0  0  0  0  0  0  0  0  0  0  0
    1.0830  -16.8870  -10.6590 F   0  0  0  0  0  0  0  0  0  0  0  0
    0.1490  -14.8960  -10.2610 F   0  0  0  0  0  0  0  0  0  0  0  0
    0.7390  -15.7260  -12.4660 F   0  0  0  0  0  0  0  0  0  0  0  0
  1  2  1  0  0  0  0
  1 10  1  0  0  0  0
  1  8  2  0  0  0  0
  2  3  2  0  0  0  0
  3  4  2  0  0  0  0
  3  5  1  0  0  0  0
  5  6  1  0  0  0  0
  6  8  1  0  0  0  0
  6  7  2  0  0  0  0
  8 12  1  0  0  0  0
  9 10  2  0  0  0  0
 10 11  1  0  0  0  0
 12 13  1  0  0  0  0
 13 14  1  0  0  0  0
 14 19  2  0  0  0  0
 14 15  1  0  0  0  0
 15 16  2  0  0  0  0
 16 17  1  0  0  0  0
 17 18  2  0  0  0  0
 17 20  1  0  0  0  0
 18 19  1  0  0  0  0
 20 23  1  0  0  0  0
 20 22  1  0  0  0  0
 20 21  1  0  0  0  0
M  END
>  <MODEL>
       1

>  <COMPND>
    UNNAMED

>  <AUTHOR>
    GENERATED BY OPEN BABEL 2.4.90

>  <MASTER>
        0    0    0    0    0    0    0    0   23    0   23    0

