__3w7g_B_rec_3w1l_hro_lig_min.pdb
 OpenBabel10201913543D

 12 12  0  0  1  0  0  0  0  0999 V2000
    5.6010  -13.5050  -13.8630 C   0  0  0  0  0  0  0  0  0  0  0  0
    6.4360  -12.9290  -12.8570 C   0  0  1  0  0  0  0  0  0  0  0  0
    7.5920  -13.8900  -11.8340 Cl  0  0  0  0  0  0  0  0  0  0  0  0
    6.4640  -11.5280  -12.7630 C   0  0  0  0  0  0  0  0  0  0  0  0
    7.1410  -10.8600  -11.9910 O   0  0  0  0  0  0  0  0  0  0  0  0
    5.6300  -10.7890  -13.6110 N   0  0  0  0  0  0  0  0  0  0  0  0
    4.7860  -11.3840  -14.5750 C   0  0  0  0  0  0  0  0  0  0  0  0
    4.0690  -10.6370  -15.2710 O   0  0  0  0  0  0  0  0  0  0  0  0
    4.7850  -12.7260  -14.6550 N   0  0  0  0  0  0  0  0  0  0  0  0
    4.3440  -15.2520  -13.0290 O   0  0  0  0  0  0  0  0  0  0  0  0
    5.3230  -14.8960  -13.8290 C   0  0  0  0  0  0  0  0  0  0  0  0
    5.9940  -15.7690  -14.2870 O   0  0  0  0  0  0  0  0  0  0  0  0
  1  9  2  0  0  0  0
  1 11  1  0  0  0  0
  1  2  1  0  0  0  0
  2  4  1  0  0  0  0
  2  3  1  6  0  0  0
  4  6  1  0  0  0  0
  4  5  2  0  0  0  0
  6  7  2  0  0  0  0
  7  8  2  0  0  0  0
  7  9  1  0  0  0  0
 10 11  2  0  0  0  0
 11 12  1  0  0  0  0
M  END
>  <COMPND>
    UNNAMED

>  <AUTHOR>
    GENERATED BY OPEN BABEL 2.4.90

>  <MASTER>
        0    0    0    0    0    0    0    0   12    0   12    0

