__3w7h_A_rec_3w7h_w7h_lig_min.pdb
 OpenBabel10201912533D

 23 25  0  0  0  0  0  0  0  0999 V2000
    5.8190  -13.4970  -14.5160 C   0  0  0  0  0  0  0  0  0  0  0  0
    5.4160  -12.6620  -15.5930 N   0  0  0  0  0  0  0  0  0  0  0  0
    5.8470  -11.3670  -15.6850 C   0  0  0  0  0  0  0  0  0  0  0  0
    5.4460  -10.6540  -16.6020 O   0  0  0  0  0  0  0  0  0  0  0  0
    6.6380  -10.9210  -14.6540 N   0  0  0  0  0  0  0  0  0  0  0  0
    6.9610  -11.6490  -13.4920 C   0  0  0  0  0  0  0  0  0  0  0  0
    7.7130  -11.1690  -12.6220 O   0  0  0  0  0  0  0  0  0  0  0  0
    6.5640  -13.0220  -13.4880 C   0  0  0  0  0  0  0  0  0  0  0  0
    3.9910  -14.9280  -14.5840 O   0  0  0  0  0  0  0  0  0  0  0  0
    5.2270  -14.8730  -14.6060 C   0  0  0  0  0  0  0  0  0  0  0  0
    5.9620  -15.8530  -14.7010 O   0  0  0  0  0  0  0  0  0  0  0  0
    6.8740  -13.8020  -12.3680 C   0  0  0  0  0  0  0  0  0  0  0  0
    6.0840  -13.2730  -11.0630 C   0  0  0  0  0  0  0  0  0  0  0  0
    4.8210  -13.9390  -10.9660 C   0  0  0  0  0  0  0  0  0  0  0  0
    4.7070  -15.2360  -10.4560 C   0  0  0  0  0  0  0  0  0  0  0  0
    3.4080  -15.8660  -10.4260 C   0  0  0  0  0  0  0  0  0  0  0  0
    3.2660  -17.1670   -9.9370 C   0  0  0  0  0  0  0  0  0  0  0  0
    2.0210  -17.7760   -9.9470 C   0  0  0  0  0  0  0  0  0  0  0  0
    0.8610  -17.1370  -10.3830 C   0  0  0  0  0  0  0  0  0  0  0  0
    0.9660  -15.8220  -10.8250 C   0  0  0  0  0  0  0  0  0  0  0  0
    2.2580  -15.2160  -10.8770 C   0  0  0  0  0  0  0  0  0  0  0  0
    2.3920  -13.9180  -11.3450 C   0  0  0  0  0  0  0  0  0  0  0  0
    3.6450  -13.2860  -11.3780 C   0  0  0  0  0  0  0  0  0  0  0  0
  1  2  1  0  0  0  0
  1 10  1  0  0  0  0
  1  8  2  0  0  0  0
  2  3  2  0  0  0  0
  3  4  2  0  0  0  0
  3  5  1  0  0  0  0
  5  6  1  0  0  0  0
  6  8  1  0  0  0  0
  6  7  2  0  0  0  0
  8 12  1  0  0  0  0
  9 10  2  0  0  0  0
 10 11  1  0  0  0  0
 12 13  1  0  0  0  0
 13 14  1  0  0  0  0
 14 23  2  0  0  0  0
 14 15  1  0  0  0  0
 15 16  2  0  0  0  0
 16 21  1  0  0  0  0
 16 17  1  0  0  0  0
 17 18  2  0  0  0  0
 18 19  1  0  0  0  0
 19 20  2  0  0  0  0
 20 21  1  0  0  0  0
 21 22  2  0  0  0  0
 22 23  1  0  0  0  0
M  END
>  <COMPND>
    UNNAMED

>  <AUTHOR>
    GENERATED BY OPEN BABEL 2.4.90

>  <MASTER>
        0    0    0    0    0    0    0    0   23    0   23    0

