__3w7h_A_rec_3w2m_zro_lig_docked.pdb
 OpenBabel10201915593D

 23 24  0  0  0  0  0  0  0  0999 V2000
    6.0120  -13.6460  -14.6540 C   0  0  0  0  0  0  0  0  0  0  0  0
    5.8510  -12.9060  -15.8120 N   0  0  0  0  0  0  0  0  0  0  0  0
    6.4360  -11.6780  -15.9890 C   0  0  0  0  0  0  0  0  0  0  0  0
    6.1920  -10.9640  -17.0110 O   0  0  0  0  0  0  0  0  0  0  0  0
    7.2160  -11.1780  -14.9980 N   0  0  0  0  0  0  0  0  0  0  0  0
    7.3980  -11.8700  -13.7860 C   0  0  0  0  0  0  0  0  0  0  0  0
    8.1750  -11.3970  -12.9380 O   0  0  0  0  0  0  0  0  0  0  0  0
    6.7260  -13.1180  -13.6350 C   0  0  0  0  0  0  0  0  0  0  0  0
    4.0010  -14.9320  -14.5880 O   0  0  0  0  0  0  0  0  0  0  0  0
    5.2260  -14.9680  -14.6170 C   0  0  0  0  0  0  0  0  0  0  0  0
    5.9370  -15.9350  -14.7300 O   0  0  0  0  0  0  0  0  0  0  0  0
    6.9600  -13.8160  -12.4300 C   0  0  0  0  0  0  0  0  0  0  0  0
    6.1740  -13.1470  -11.2110 C   0  0  0  0  0  0  0  0  0  0  0  0
    4.9130  -13.7320  -11.0770 C   0  0  0  0  0  0  0  0  0  0  0  0
    4.7200  -15.0980  -10.9930 C   0  0  0  0  0  0  0  0  0  0  0  0
    3.4340  -15.6880  -10.9100 C   0  0  0  0  0  0  0  0  0  0  0  0
    2.2580  -14.9140  -11.0900 C   0  0  0  0  0  0  0  0  0  0  0  0
    2.4470  -13.5180  -11.2300 C   0  0  0  0  0  0  0  0  0  0  0  0
    3.7450  -12.9410  -11.1750 C   0  0  0  0  0  0  0  0  0  0  0  0
    0.8940  -15.4940  -11.1600 C   0  0  0  0  0  0  0  0  0  0  0  0
   -0.0350  -14.6670  -11.6460 F   0  0  0  0  0  0  0  0  0  0  0  0
    0.8910  -16.6920  -11.8290 F   0  0  0  0  0  0  0  0  0  0  0  0
    0.3690  -15.6020   -9.7230 F   0  0  0  0  0  0  0  0  0  0  0  0
  1  2  1  0  0  0  0
  1 10  1  0  0  0  0
  1  8  2  0  0  0  0
  2  3  2  0  0  0  0
  3  4  2  0  0  0  0
  3  5  1  0  0  0  0
  5  6  1  0  0  0  0
  6  8  1  0  0  0  0
  6  7  2  0  0  0  0
  8 12  1  0  0  0  0
  9 10  2  0  0  0  0
 10 11  1  0  0  0  0
 12 13  1  0  0  0  0
 13 14  1  0  0  0  0
 14 19  2  0  0  0  0
 14 15  1  0  0  0  0
 15 16  2  0  0  0  0
 16 17  1  0  0  0  0
 17 18  2  0  0  0  0
 17 20  1  0  0  0  0
 18 19  1  0  0  0  0
 20 23  1  0  0  0  0
 20 22  1  0  0  0  0
 20 21  1  0  0  0  0
M  END
>  <MODEL>
      13

>  <COMPND>
    UNNAMED

>  <AUTHOR>
    GENERATED BY OPEN BABEL 2.4.90

>  <MASTER>
        0    0    0    0    0    0    0    0   23    0   23    0

