__3w7h_A_rec_3w6y_w6y_lig_docked.pdb
 OpenBabel10201915593D

 26 28  0  0  1  0  0  0  0  0999 V2000
    1.2690  -16.0760  -11.0490 C   0  0  0  0  0  0  0  0  0  0  0  0
    1.2720  -17.2550  -10.2990 C   0  0  0  0  0  0  0  0  0  0  0  0
    2.4390  -17.6660   -9.6590 C   0  0  0  0  0  0  0  0  0  0  0  0
    3.6010  -16.8970   -9.7680 C   0  0  0  0  0  0  0  0  0  0  0  0
    3.6000  -15.7140  -10.5190 C   0  0  0  0  0  0  0  0  0  0  0  0
    4.7620  -14.9400  -10.6360 C   0  0  0  0  0  0  0  0  0  0  0  0
    2.4300  -15.3050  -11.1630 C   0  0  0  0  0  0  0  0  0  0  0  0
    2.4430  -14.1270  -11.9150 C   0  0  0  0  0  0  0  0  0  0  0  0
    3.5990  -13.3660  -12.0130 C   0  0  0  0  0  0  0  0  0  0  0  0
    4.7710  -13.7630  -11.3840 C   0  0  0  0  0  0  0  0  0  0  0  0
   -0.6770  -14.8870  -11.1170 O   0  0  0  0  0  0  0  0  0  0  0  0
    0.1150  -15.6570  -11.6970 C   0  0  0  0  0  0  0  0  0  0  0  0
   -0.1570  -16.0880  -12.8400 O   0  0  0  0  0  0  0  0  0  0  0  0
    5.8970  -12.9820  -11.5040 C   0  0  0  0  0  0  0  0  0  0  0  0
    6.8470  -13.6720  -12.5270 C   0  0  0  0  0  0  0  0  0  0  0  0
    6.8100  -13.0560  -13.8080 C   0  0  1  0  0  0  0  0  0  0  0  0
    7.4630  -11.8280  -13.9990 C   0  0  0  0  0  0  0  0  0  0  0  0
    8.0700  -11.2630  -13.0840 O   0  0  0  0  0  0  0  0  0  0  0  0
    7.4330  -11.2000  -15.2550 N   0  0  0  0  0  0  0  0  0  0  0  0
    6.7650  -11.7690  -16.3300 C   0  0  0  0  0  0  0  0  0  0  0  0
    6.7340  -11.2120  -17.4280 O   0  0  0  0  0  0  0  0  0  0  0  0
    6.1220  -12.9840  -16.1440 N   0  0  0  0  0  0  0  0  0  0  0  0
    6.1430  -13.6340  -14.9060 C   0  0  0  0  0  0  0  0  0  0  0  0
    5.4360  -14.8370  -14.8550 C   0  0  0  0  0  0  0  0  0  0  0  0
    6.0090  -15.9160  -14.5880 O   0  0  0  0  0  0  0  0  0  0  0  0
    4.1990  -14.8160  -15.1010 O   0  0  0  0  0  0  0  0  0  0  0  0
  1 12  1  0  0  0  0
  1  7  2  0  0  0  0
  1  2  1  0  0  0  0
  2  3  2  0  0  0  0
  3  4  1  0  0  0  0
  4  5  2  0  0  0  0
  5  7  1  0  0  0  0
  5  6  1  0  0  0  0
  6 10  2  0  0  0  0
  7  8  1  0  0  0  0
  8  9  2  0  0  0  0
  9 10  1  0  0  0  0
 10 14  1  0  0  0  0
 11 12  2  0  0  0  0
 12 13  1  0  0  0  0
 14 15  1  0  0  0  0
 16 15  1  6  0  0  0
 16 23  1  0  0  0  0
 16 17  1  0  0  0  0
 17 19  1  0  0  0  0
 17 18  2  0  0  0  0
 19 20  2  0  0  0  0
 20 21  2  0  0  0  0
 20 22  1  0  0  0  0
 22 23  2  0  0  0  0
 23 24  1  0  0  0  0
 24 25  2  0  0  0  0
 24 26  1  0  0  0  0
M  END
>  <MODEL>
      10

>  <COMPND>
    UNNAMED

>  <AUTHOR>
    GENERATED BY OPEN BABEL 2.4.90

>  <MASTER>
        0    0    0    0    0    0    0    0   26    0   26    0

