__3w7h_A_rec_3w22_2ro_lig_min.pdb
 OpenBabel10201912233D

 23 24  0  0  0  0  0  0  0  0999 V2000
    5.5330  -13.5700  -14.4160 C   0  0  0  0  0  0  0  0  0  0  0  0
    5.2050  -12.6890  -15.4800 N   0  0  0  0  0  0  0  0  0  0  0  0
    5.6540  -11.3580  -15.5010 C   0  0  0  0  0  0  0  0  0  0  0  0
    5.3980  -10.5880  -16.4370 O   0  0  0  0  0  0  0  0  0  0  0  0
    6.4020  -10.9150  -14.4290 N   0  0  0  0  0  0  0  0  0  0  0  0
    6.6740  -11.7330  -13.2950 C   0  0  0  0  0  0  0  0  0  0  0  0
    7.3010  -11.1920  -12.3570 O   0  0  0  0  0  0  0  0  0  0  0  0
    6.2210  -13.0930  -13.2830 C   0  0  0  0  0  0  0  0  0  0  0  0
    5.6320  -15.9150  -14.6660 O   0  0  0  0  0  0  0  0  0  0  0  0
    4.9540  -14.8800  -14.5170 C   0  0  0  0  0  0  0  0  0  0  0  0
    3.6990  -14.9530  -14.4360 O   0  0  0  0  0  0  0  0  0  0  0  0
    6.4560  -13.9520  -12.2320 C   0  0  0  0  0  0  0  0  0  0  0  0
    5.7560  -13.4030  -10.9500 C   0  0  0  0  0  0  0  0  0  0  0  0
    4.5500  -14.1750  -10.8580 C   0  0  0  0  0  0  0  0  0  0  0  0
    3.3320  -13.5540  -11.1080 C   0  0  0  0  0  0  0  0  0  0  0  0
    2.1150  -14.2550  -11.0580 C   0  0  0  0  0  0  0  0  0  0  0  0
    2.0500  -15.6340  -10.7410 C   0  0  0  0  0  0  0  0  0  0  0  0
    3.2930  -16.2500  -10.5230 C   0  0  0  0  0  0  0  0  0  0  0  0
    4.4980  -15.5280  -10.5830 C   0  0  0  0  0  0  0  0  0  0  0  0
    0.7070  -16.2520  -10.7720 C   0  0  0  0  0  0  0  0  0  0  0  0
   -0.2790  -15.6210   -9.7220 C   0  0  0  0  0  0  0  0  0  0  0  0
    0.0610  -15.9710  -12.1840 C   0  0  0  0  0  0  0  0  0  0  0  0
    0.7480  -17.8090  -10.5680 C   0  0  0  0  0  0  0  0  0  0  0  0
  1  2  1  0  0  0  0
  1 10  1  0  0  0  0
  1  8  2  0  0  0  0
  2  3  2  0  0  0  0
  3  4  2  0  0  0  0
  3  5  1  0  0  0  0
  5  6  1  0  0  0  0
  6  8  1  0  0  0  0
  6  7  2  0  0  0  0
  8 12  1  0  0  0  0
  9 10  2  0  0  0  0
 10 11  1  0  0  0  0
 12 13  1  0  0  0  0
 13 14  1  0  0  0  0
 14 15  2  0  0  0  0
 14 19  1  0  0  0  0
 15 16  1  0  0  0  0
 16 17  2  0  0  0  0
 17 20  1  0  0  0  0
 17 18  1  0  0  0  0
 18 19  2  0  0  0  0
 20 22  1  0  0  0  0
 20 21  1  0  0  0  0
 20 23  1  0  0  0  0
M  END
>  <COMPND>
    UNNAMED

>  <AUTHOR>
    GENERATED BY OPEN BABEL 2.4.90

>  <MASTER>
        0    0    0    0    0    0    0    0   23    0   23    0

