__3w7i_A_rec_3w7k_w7k_lig_min.pdb
 OpenBabel10201913383D

 27 29  0  0  0  0  0  0  0  0999 V2000
    6.1240  -13.3890  -11.1890 C   0  0  0  0  0  0  0  0  0  0  0  0
    4.8790  -13.9920  -11.0620 C   0  0  0  0  0  0  0  0  0  0  0  0
    4.7780  -15.3030  -10.6070 C   0  0  0  0  0  0  0  0  0  0  0  0
    3.5290  -15.8990  -10.4820 C   0  0  0  0  0  0  0  0  0  0  0  0
    3.4300  -17.2090  -10.0290 C   0  0  0  0  0  0  0  0  0  0  0  0
    2.1820  -17.8100   -9.9020 C   0  0  0  0  0  0  0  0  0  0  0  0
    1.0330  -17.1010  -10.2280 C   0  0  0  0  0  0  0  0  0  0  0  0
    1.1300  -15.7910  -10.6830 C   0  0  0  0  0  0  0  0  0  0  0  0
    2.3770  -15.1890  -10.8090 C   0  0  0  0  0  0  0  0  0  0  0  0
    2.4720  -13.8780  -11.2630 C   0  0  0  0  0  0  0  0  0  0  0  0
    3.7240  -13.2920  -11.3850 C   0  0  0  0  0  0  0  0  0  0  0  0
   -0.1880  -17.6890  -10.1050 O   0  0  0  0  0  0  0  0  0  0  0  0
   -0.0600  -19.0990  -10.3080 C   0  0  0  0  0  0  0  0  0  0  0  0
    3.8890  -12.0160  -11.8220 O   0  0  0  0  0  0  0  0  0  0  0  0
    3.0450  -11.7850  -12.9520 C   0  0  0  0  0  0  0  0  0  0  0  0
    6.8250  -13.9240  -12.4400 C   0  0  0  0  0  0  0  0  0  0  0  0
    5.8150  -13.5720  -14.5940 C   0  0  0  0  0  0  0  0  0  0  0  0
    5.5340  -12.7390  -15.6840 N   0  0  0  0  0  0  0  0  0  0  0  0
    5.9950  -11.4190  -15.6840 C   0  0  0  0  0  0  0  0  0  0  0  0
    5.7520  -10.6810  -16.6380 O   0  0  0  0  0  0  0  0  0  0  0  0
    6.7350  -10.9380  -14.5980 N   0  0  0  0  0  0  0  0  0  0  0  0
    7.0110  -11.7780  -13.5130 C   0  0  0  0  0  0  0  0  0  0  0  0
    7.6610  -11.3450  -12.5630 O   0  0  0  0  0  0  0  0  0  0  0  0
    6.5500  -13.0900  -13.5170 C   0  0  0  0  0  0  0  0  0  0  0  0
    6.1690  -15.8290  -14.7000 O   0  0  0  0  0  0  0  0  0  0  0  0
    5.3580  -14.8840  -14.5910 C   0  0  0  0  0  0  0  0  0  0  0  0
    4.1360  -15.1210  -14.4780 O   0  0  0  0  0  0  0  0  0  0  0  0
  1 16  1  0  0  0  0
  1  2  1  0  0  0  0
  2 11  2  0  0  0  0
  2  3  1  0  0  0  0
  3  4  2  0  0  0  0
  4  9  1  0  0  0  0
  4  5  1  0  0  0  0
  5  6  2  0  0  0  0
  6  7  1  0  0  0  0
  7  8  2  0  0  0  0
  7 12  1  0  0  0  0
  8  9  1  0  0  0  0
  9 10  2  0  0  0  0
 10 11  1  0  0  0  0
 11 14  1  0  0  0  0
 12 13  1  0  0  0  0
 14 15  1  0  0  0  0
 16 24  1  0  0  0  0
 17 18  1  0  0  0  0
 17 26  1  0  0  0  0
 17 24  2  0  0  0  0
 18 19  2  0  0  0  0
 19 20  2  0  0  0  0
 19 21  1  0  0  0  0
 21 22  1  0  0  0  0
 22 24  1  0  0  0  0
 22 23  2  0  0  0  0
 25 26  2  0  0  0  0
 26 27  1  0  0  0  0
M  END
>  <COMPND>
    UNNAMED

>  <AUTHOR>
    GENERATED BY OPEN BABEL 2.4.90

>  <MASTER>
        0    0    0    0    0    0    0    0   27    0   27    0

