__3w7i_A_rec_2e6d_fum_lig_min.pdb
 OpenBabel10201913113D

  8  7  0  0  0  0  0  0  0  0999 V2000
    6.7620  -13.9830  -13.8920 C   0  0  0  0  0  0  0  0  0  0  0  0
    5.9020  -14.5490  -13.0510 C   0  0  0  0  0  0  0  0  0  0  0  0
    8.1460  -12.5780  -12.5430 O   0  0  0  0  0  0  0  0  0  0  0  0
    8.0580  -13.5520  -13.3070 C   0  0  0  0  0  0  0  0  0  0  0  0
    9.0650  -14.2170  -13.6330 O   0  0  0  0  0  0  0  0  0  0  0  0
    4.5930  -15.0790  -13.4860 C   0  0  0  0  0  0  0  0  0  0  0  0
    3.9080  -15.6090  -12.6100 O   0  0  0  0  0  0  0  0  0  0  0  0
    4.2290  -15.0520  -14.6950 O   0  0  0  0  0  0  0  0  0  0  0  0
  1  4  1  0  0  0  0
  1  2  2  0  0  0  0
  2  6  1  0  0  0  0
  3  4  2  0  0  0  0
  4  5  1  0  0  0  0
  6  8  2  0  0  0  0
  6  7  1  0  0  0  0
M  END
>  <COMPND>
    UNNAMED

>  <AUTHOR>
    GENERATED BY OPEN BABEL 2.4.90

>  <MASTER>
        0    0    0    0    0    0    0    0    8    0    8    0

