__3w7j_B_rec_3w7l_w7l_lig_min.pdb
 OpenBabel10201912413D

 25 27  0  0  0  0  0  0  0  0999 V2000
    6.4010  -13.8600  -11.7740 C   0  0  0  0  0  0  0  0  0  0  0  0
    5.6770  -13.4470  -14.0310 C   0  0  0  0  0  0  0  0  0  0  0  0
    5.4530  -12.6330  -15.1180 N   0  0  0  0  0  0  0  0  0  0  0  0
    5.9660  -11.3040  -15.1860 C   0  0  0  0  0  0  0  0  0  0  0  0
    5.7240  -10.5430  -16.1280 O   0  0  0  0  0  0  0  0  0  0  0  0
    6.6260  -10.8680  -14.0870 N   0  0  0  0  0  0  0  0  0  0  0  0
    6.8240  -11.6800  -12.9250 C   0  0  0  0  0  0  0  0  0  0  0  0
    7.4560  -11.1550  -11.9850 O   0  0  0  0  0  0  0  0  0  0  0  0
    6.3250  -13.0180  -12.9150 C   0  0  0  0  0  0  0  0  0  0  0  0
    5.6850  -15.7720  -14.3660 O   0  0  0  0  0  0  0  0  0  0  0  0
    5.0370  -14.7650  -14.1320 C   0  0  0  0  0  0  0  0  0  0  0  0
    3.8340  -14.8100  -13.9830 O   0  0  0  0  0  0  0  0  0  0  0  0
    5.6020  -13.2350  -10.5830 C   0  0  0  0  0  0  0  0  0  0  0  0
    4.2140  -13.4120  -10.7220 C   0  0  0  0  0  0  0  0  0  0  0  0
    3.3650  -12.3790  -11.2720 C   0  0  0  0  0  0  0  0  0  0  0  0
    1.9820  -12.5370  -11.5070 C   0  0  0  0  0  0  0  0  0  0  0  0
    1.3980  -13.7870  -11.2200 C   0  0  0  0  0  0  0  0  0  0  0  0
    2.1890  -14.8290  -10.6720 C   0  0  0  0  0  0  0  0  0  0  0  0
    1.5850  -16.0610  -10.4100 C   0  0  0  0  0  0  0  0  0  0  0  0
    3.5700  -14.6930  -10.4450 C   0  0  0  0  0  0  0  0  0  0  0  0
    4.2830  -15.7710   -9.8970 C   0  0  0  0  0  0  0  0  0  0  0  0
    3.6430  -16.9870   -9.5450 C   0  0  0  0  0  0  0  0  0  0  0  0
    2.3230  -17.1180   -9.8390 C   0  0  0  0  0  0  0  0  0  0  0  0
    1.7220  -18.3560   -9.5550 O   0  0  0  0  0  0  0  0  0  0  0  0
    0.3350  -18.4860   -9.8520 C   0  0  0  0  0  0  0  0  0  0  0  0
  1  9  1  0  0  0  0
  1 13  1  0  0  0  0
  2  3  1  0  0  0  0
  2 11  1  0  0  0  0
  2  9  2  0  0  0  0
  3  4  2  0  0  0  0
  4  5  2  0  0  0  0
  4  6  1  0  0  0  0
  6  7  1  0  0  0  0
  7  9  1  0  0  0  0
  7  8  2  0  0  0  0
 10 11  2  0  0  0  0
 11 12  1  0  0  0  0
 13 14  1  0  0  0  0
 14 15  2  0  0  0  0
 14 20  1  0  0  0  0
 15 16  1  0  0  0  0
 16 17  2  0  0  0  0
 17 18  1  0  0  0  0
 18 20  2  0  0  0  0
 18 19  1  0  0  0  0
 19 23  2  0  0  0  0
 20 21  1  0  0  0  0
 21 22  2  0  0  0  0
 22 23  1  0  0  0  0
 23 24  1  0  0  0  0
 24 25  1  0  0  0  0
M  END
>  <COMPND>
    UNNAMED

>  <AUTHOR>
    GENERATED BY OPEN BABEL 2.4.90

>  <MASTER>
        0    0    0    0    0    0    0    0   25    0   25    0

