__3w7k_A_rec_3w1t_wro_lig_min.pdb
 OpenBabel10201914463D

 23 24  0  0  0  0  0  0  0  0999 V2000
    5.6890  -13.5080  -14.4260 C   0  0  0  0  0  0  0  0  0  0  0  0
    5.3660  -12.7020  -15.5200 N   0  0  0  0  0  0  0  0  0  0  0  0
    5.8810  -11.3810  -15.6150 C   0  0  0  0  0  0  0  0  0  0  0  0
    5.5630  -10.6070  -16.5120 O   0  0  0  0  0  0  0  0  0  0  0  0
    6.6950  -10.9420  -14.5680 N   0  0  0  0  0  0  0  0  0  0  0  0
    6.9780  -11.7190  -13.4200 C   0  0  0  0  0  0  0  0  0  0  0  0
    7.6610  -11.2580  -12.5040 O   0  0  0  0  0  0  0  0  0  0  0  0
    6.4670  -13.0530  -13.3740 C   0  0  0  0  0  0  0  0  0  0  0  0
    5.7590  -15.8740  -14.6030 O   0  0  0  0  0  0  0  0  0  0  0  0
    5.0640  -14.8560  -14.5190 C   0  0  0  0  0  0  0  0  0  0  0  0
    3.8220  -14.8120  -14.5800 O   0  0  0  0  0  0  0  0  0  0  0  0
    6.7390  -13.8670  -12.2840 C   0  0  0  0  0  0  0  0  0  0  0  0
    5.9650  -13.4050  -11.0290 C   0  0  0  0  0  0  0  0  0  0  0  0
    4.7800  -14.0100  -10.8900 C   0  0  0  0  0  0  0  0  0  0  0  0
    4.6740  -15.3530  -10.3750 C   0  0  0  0  0  0  0  0  0  0  0  0
    3.4000  -15.9490  -10.2890 C   0  0  0  0  0  0  0  0  0  0  0  0
    2.2380  -15.2340  -10.7220 C   0  0  0  0  0  0  0  0  0  0  0  0
    2.3250  -13.9110  -11.2070 C   0  0  0  0  0  0  0  0  0  0  0  0
    3.6070  -13.3070  -11.2750 C   0  0  0  0  0  0  0  0  0  0  0  0
    3.2260  -17.3370   -9.7690 C   0  0  0  0  0  0  0  0  0  0  0  0
    4.1560  -18.1310   -9.8020 F   0  0  0  0  0  0  0  0  0  0  0  0
    2.9670  -17.2700   -8.5950 F   0  0  0  0  0  0  0  0  0  0  0  0
    2.3530  -17.8960  -10.4570 F   0  0  0  0  0  0  0  0  0  0  0  0
  1  2  1  0  0  0  0
  1 10  1  0  0  0  0
  1  8  2  0  0  0  0
  2  3  2  0  0  0  0
  3  4  2  0  0  0  0
  3  5  1  0  0  0  0
  5  6  1  0  0  0  0
  6  8  1  0  0  0  0
  6  7  2  0  0  0  0
  8 12  1  0  0  0  0
  9 10  2  0  0  0  0
 10 11  1  0  0  0  0
 12 13  1  0  0  0  0
 13 14  1  0  0  0  0
 14 19  2  0  0  0  0
 14 15  1  0  0  0  0
 15 16  2  0  0  0  0
 16 17  1  0  0  0  0
 16 20  1  0  0  0  0
 17 18  2  0  0  0  0
 18 19  1  0  0  0  0
 20 23  1  0  0  0  0
 20 21  1  0  0  0  0
 20 22  1  0  0  0  0
M  END
>  <COMPND>
    UNNAMED

>  <AUTHOR>
    GENERATED BY OPEN BABEL 2.4.90

>  <MASTER>
        0    0    0    0    0    0    0    0   23    0   23    0

