__3w7k_A_rec_3w7k_w7k_lig_min.pdb
 OpenBabel10201913313D

 27 29  0  0  0  0  0  0  0  0999 V2000
    6.4150  -13.2500  -11.1520 C   0  0  0  0  0  0  0  0  0  0  0  0
    5.1570  -13.8170  -10.9910 C   0  0  0  0  0  0  0  0  0  0  0  0
    5.0320  -15.1450  -10.5950 C   0  0  0  0  0  0  0  0  0  0  0  0
    3.7700  -15.7040  -10.4360 C   0  0  0  0  0  0  0  0  0  0  0  0
    3.6460  -17.0320  -10.0420 C   0  0  0  0  0  0  0  0  0  0  0  0
    2.3850  -17.5950   -9.8810 C   0  0  0  0  0  0  0  0  0  0  0  0
    1.2480  -16.8330  -10.1150 C   0  0  0  0  0  0  0  0  0  0  0  0
    1.3690  -15.5060  -10.5100 C   0  0  0  0  0  0  0  0  0  0  0  0
    2.6290  -14.9410  -10.6700 C   0  0  0  0  0  0  0  0  0  0  0  0
    2.7490  -13.6130  -11.0650 C   0  0  0  0  0  0  0  0  0  0  0  0
    4.0140  -13.0640  -11.2220 C   0  0  0  0  0  0  0  0  0  0  0  0
    0.0150  -17.3860   -9.9580 O   0  0  0  0  0  0  0  0  0  0  0  0
    0.0620  -18.7680  -10.3210 C   0  0  0  0  0  0  0  0  0  0  0  0
    4.2030  -11.7740  -11.6050 O   0  0  0  0  0  0  0  0  0  0  0  0
    3.1100  -10.9740  -11.1470 C   0  0  0  0  0  0  0  0  0  0  0  0
    7.0640  -13.8000  -12.4240 C   0  0  0  0  0  0  0  0  0  0  0  0
    5.8990  -13.4980  -14.5070 C   0  0  0  0  0  0  0  0  0  0  0  0
    5.5470  -12.6950  -15.5980 N   0  0  0  0  0  0  0  0  0  0  0  0
    6.0260  -11.3830  -15.6760 C   0  0  0  0  0  0  0  0  0  0  0  0
    5.7210  -10.6720  -16.6320 O   0  0  0  0  0  0  0  0  0  0  0  0
    6.8530  -10.8820  -14.6650 N   0  0  0  0  0  0  0  0  0  0  0  0
    7.1990  -11.6920  -13.5770 C   0  0  0  0  0  0  0  0  0  0  0  0
    7.9260  -11.2400  -12.6930 O   0  0  0  0  0  0  0  0  0  0  0  0
    6.7200  -12.9950  -13.5040 C   0  0  0  0  0  0  0  0  0  0  0  0
    6.1960  -15.7620  -14.6400 O   0  0  0  0  0  0  0  0  0  0  0  0
    5.4240  -14.8020  -14.4260 C   0  0  0  0  0  0  0  0  0  0  0  0
    4.2270  -15.0160  -14.1400 O   0  0  0  0  0  0  0  0  0  0  0  0
  1 16  1  0  0  0  0
  1  2  1  0  0  0  0
  2 11  2  0  0  0  0
  2  3  1  0  0  0  0
  3  4  2  0  0  0  0
  4  9  1  0  0  0  0
  4  5  1  0  0  0  0
  5  6  2  0  0  0  0
  6  7  1  0  0  0  0
  7  8  2  0  0  0  0
  7 12  1  0  0  0  0
  8  9  1  0  0  0  0
  9 10  2  0  0  0  0
 10 11  1  0  0  0  0
 11 14  1  0  0  0  0
 12 13  1  0  0  0  0
 14 15  1  0  0  0  0
 16 24  1  0  0  0  0
 17 18  1  0  0  0  0
 17 26  1  0  0  0  0
 17 24  2  0  0  0  0
 18 19  2  0  0  0  0
 19 20  2  0  0  0  0
 19 21  1  0  0  0  0
 21 22  1  0  0  0  0
 22 24  1  0  0  0  0
 22 23  2  0  0  0  0
 25 26  2  0  0  0  0
 26 27  1  0  0  0  0
M  END
>  <COMPND>
    UNNAMED

>  <AUTHOR>
    GENERATED BY OPEN BABEL 2.4.90

>  <MASTER>
        0    0    0    0    0    0    0    0   27    0   27    0

