__3w7k_A_rec_3w7j_w7j_lig_min.pdb
 OpenBabel10201913423D

 26 28  0  0  0  0  0  0  0  0999 V2000
    6.2140  -13.3750  -10.9500 C   0  0  0  0  0  0  0  0  0  0  0  0
    5.0050  -14.0920  -10.8950 C   0  0  0  0  0  0  0  0  0  0  0  0
    4.8640  -15.3860  -10.3150 C   0  0  0  0  0  0  0  0  0  0  0  0
    3.6060  -16.0460  -10.3400 C   0  0  0  0  0  0  0  0  0  0  0  0
    3.4090  -17.3470   -9.8490 C   0  0  0  0  0  0  0  0  0  0  0  0
    2.1210  -17.8780   -9.9310 C   0  0  0  0  0  0  0  0  0  0  0  0
    1.1040  -17.1390  -10.5370 C   0  0  0  0  0  0  0  0  0  0  0  0
    1.2940  -15.9090  -10.9900 C   0  0  0  0  0  0  0  0  0  0  0  0
    2.5370  -15.3980  -10.9350 C   0  0  0  0  0  0  0  0  0  0  0  0
    2.6670  -14.1640  -11.4830 C   0  0  0  0  0  0  0  0  0  0  0  0
    3.8780  -13.5210  -11.4530 C   0  0  0  0  0  0  0  0  0  0  0  0
   -0.1990  -17.5560  -10.6790 C   0  0  0  0  0  0  0  0  0  0  0  0
   -0.7220  -18.1840   -9.7540 O   0  0  0  0  0  0  0  0  0  0  0  0
   -0.8050  -17.2060  -11.6740 O   0  0  0  0  0  0  0  0  0  0  0  0
    7.0480  -13.7750  -12.2490 C   0  0  0  0  0  0  0  0  0  0  0  0
    5.9840  -13.4650  -14.5700 C   0  0  0  0  0  0  0  0  0  0  0  0
    5.6890  -12.6450  -15.7040 N   0  0  0  0  0  0  0  0  0  0  0  0
    6.1700  -11.3430  -15.7380 C   0  0  0  0  0  0  0  0  0  0  0  0
    5.8900  -10.5600  -16.6690 O   0  0  0  0  0  0  0  0  0  0  0  0
    6.8870  -10.8820  -14.7050 N   0  0  0  0  0  0  0  0  0  0  0  0
    7.1990  -11.6570  -13.5340 C   0  0  0  0  0  0  0  0  0  0  0  0
    7.8850  -11.1410  -12.6550 O   0  0  0  0  0  0  0  0  0  0  0  0
    6.7110  -12.9850  -13.4660 C   0  0  0  0  0  0  0  0  0  0  0  0
    4.1410  -14.8960  -14.7090 O   0  0  0  0  0  0  0  0  0  0  0  0
    5.3940  -14.7810  -14.6490 C   0  0  0  0  0  0  0  0  0  0  0  0
    6.1780  -15.7930  -14.6100 O   0  0  0  0  0  0  0  0  0  0  0  0
  1 15  1  0  0  0  0
  1  2  1  0  0  0  0
  2 11  2  0  0  0  0
  2  3  1  0  0  0  0
  3  4  2  0  0  0  0
  4  9  1  0  0  0  0
  4  5  1  0  0  0  0
  5  6  2  0  0  0  0
  6  7  1  0  0  0  0
  7  8  2  0  0  0  0
  7 12  1  0  0  0  0
  8  9  1  0  0  0  0
  9 10  2  0  0  0  0
 10 11  1  0  0  0  0
 12 14  2  0  0  0  0
 12 13  1  0  0  0  0
 15 23  1  0  0  0  0
 16 17  1  0  0  0  0
 16 25  1  0  0  0  0
 16 23  2  0  0  0  0
 17 18  2  0  0  0  0
 18 19  2  0  0  0  0
 18 20  1  0  0  0  0
 20 21  1  0  0  0  0
 21 23  1  0  0  0  0
 21 22  2  0  0  0  0
 24 25  2  0  0  0  0
 25 26  1  0  0  0  0
M  END
>  <COMPND>
    UNNAMED

>  <AUTHOR>
    GENERATED BY OPEN BABEL 2.4.90

>  <MASTER>
        0    0    0    0    0    0    0    0   26    0   26    0

