__3w7l_A_rec_3w7p_w7p_lig_min.pdb
 OpenBabel10201915213D

 22 23  0  0  0  0  0  0  0  0999 V2000
    5.7890  -13.6970  -14.1010 C   0  0  0  0  0  0  0  0  0  0  0  0
    5.3950  -12.8820  -15.2090 N   0  0  0  0  0  0  0  0  0  0  0  0
    5.6090  -11.5110  -15.1340 C   0  0  0  0  0  0  0  0  0  0  0  0
    5.2320  -10.7450  -16.0440 O   0  0  0  0  0  0  0  0  0  0  0  0
    6.1450  -10.9890  -13.9860 N   0  0  0  0  0  0  0  0  0  0  0  0
    6.5680  -11.7590  -12.9170 C   0  0  0  0  0  0  0  0  0  0  0  0
    7.1010  -11.1600  -11.9860 O   0  0  0  0  0  0  0  0  0  0  0  0
    6.3680  -13.1580  -12.9710 C   0  0  0  0  0  0  0  0  0  0  0  0
    4.2430  -15.4460  -14.0840 O   0  0  0  0  0  0  0  0  0  0  0  0
    5.4420  -15.1040  -14.2890 C   0  0  0  0  0  0  0  0  0  0  0  0
    6.3180  -15.8980  -14.6380 O   0  0  0  0  0  0  0  0  0  0  0  0
    6.7680  -13.9840  -11.7650 C   0  0  0  0  0  0  0  0  0  0  0  0
    5.7660  -13.6230  -10.5810 C   0  0  0  0  0  0  0  0  0  0  0  0
    4.4510  -14.1930  -10.7850 C   0  0  0  0  0  0  0  0  0  0  0  0
    4.3790  -15.5360  -10.5940 C   0  0  0  0  0  0  0  0  0  0  0  0
    3.1990  -16.2100  -10.7700 C   0  0  0  0  0  0  0  0  0  0  0  0
    2.0950  -15.6290  -11.1770 C   0  0  0  0  0  0  0  0  0  0  0  0
    2.0490  -14.2230  -11.3920 C   0  0  0  0  0  0  0  0  0  0  0  0
    3.3140  -13.5190  -11.2190 C   0  0  0  0  0  0  0  0  0  0  0  0
    0.9550  -16.5150  -11.3210 C   0  0  0  0  0  0  0  0  0  0  0  0
    0.5730  -17.4300  -10.4770 O   0  0  0  0  0  0  0  0  0  0  0  0
    0.3610  -16.4290  -12.3670 O   0  0  0  0  0  0  0  0  0  0  0  0
  1  2  1  0  0  0  0
  1 10  1  0  0  0  0
  1  8  2  0  0  0  0
  2  3  2  0  0  0  0
  3  4  2  0  0  0  0
  3  5  1  0  0  0  0
  5  6  1  0  0  0  0
  6  8  1  0  0  0  0
  6  7  2  0  0  0  0
  8 12  1  0  0  0  0
  9 10  2  0  0  0  0
 10 11  1  0  0  0  0
 12 13  1  0  0  0  0
 13 14  1  0  0  0  0
 14 19  2  0  0  0  0
 14 15  1  0  0  0  0
 15 16  2  0  0  0  0
 16 17  1  0  0  0  0
 17 18  2  0  0  0  0
 17 20  1  0  0  0  0
 18 19  1  0  0  0  0
 20 22  2  0  0  0  0
 20 21  1  0  0  0  0
M  END
>  <COMPND>
    UNNAMED

>  <AUTHOR>
    GENERATED BY OPEN BABEL 2.4.90

>  <MASTER>
        0    0    0    0    0    0    0    0   22    0   22    0

