__3w7l_A_rec_3w2m_zro_lig_docked.pdb
 OpenBabel10201916233D

 23 24  0  0  0  0  0  0  0  0999 V2000
    6.2230  -13.6210  -14.7110 C   0  0  0  0  0  0  0  0  0  0  0  0
    6.1380  -12.8720  -15.8720 N   0  0  0  0  0  0  0  0  0  0  0  0
    6.7760  -11.6680  -16.0200 C   0  0  0  0  0  0  0  0  0  0  0  0
    6.6020  -10.9420  -17.0480 O   0  0  0  0  0  0  0  0  0  0  0  0
    7.5350  -11.2010  -14.9960 N   0  0  0  0  0  0  0  0  0  0  0  0
    7.6420  -11.9030  -13.7810 C   0  0  0  0  0  0  0  0  0  0  0  0
    8.4020  -11.4630  -12.9010 O   0  0  0  0  0  0  0  0  0  0  0  0
    6.9160  -13.1230  -13.6630 C   0  0  0  0  0  0  0  0  0  0  0  0
    4.1740  -14.8350  -14.8840 O   0  0  0  0  0  0  0  0  0  0  0  0
    5.3850  -14.9110  -14.7110 C   0  0  0  0  0  0  0  0  0  0  0  0
    6.0630  -15.9060  -14.6390 O   0  0  0  0  0  0  0  0  0  0  0  0
    7.0740  -13.8330  -12.4520 C   0  0  0  0  0  0  0  0  0  0  0  0
    6.1340  -13.2390  -11.3050 C   0  0  0  0  0  0  0  0  0  0  0  0
    4.8730  -13.8350  -11.3640 C   0  0  0  0  0  0  0  0  0  0  0  0
    4.6790  -15.2010  -11.2730 C   0  0  0  0  0  0  0  0  0  0  0  0
    3.4020  -15.8050  -11.3850 C   0  0  0  0  0  0  0  0  0  0  0  0
    2.2650  -15.0500  -11.7790 C   0  0  0  0  0  0  0  0  0  0  0  0
    2.4650  -13.6570  -11.9280 C   0  0  0  0  0  0  0  0  0  0  0  0
    3.7310  -13.0630  -11.6760 C   0  0  0  0  0  0  0  0  0  0  0  0
    0.9370  -15.6490  -12.0560 C   0  0  0  0  0  0  0  0  0  0  0  0
   -0.0860  -15.0230  -11.4690 F   0  0  0  0  0  0  0  0  0  0  0  0
    0.7220  -15.7960  -13.4040 F   0  0  0  0  0  0  0  0  0  0  0  0
    0.8630  -16.9720  -11.2840 F   0  0  0  0  0  0  0  0  0  0  0  0
  1  2  1  0  0  0  0
  1 10  1  0  0  0  0
  1  8  2  0  0  0  0
  2  3  2  0  0  0  0
  3  4  2  0  0  0  0
  3  5  1  0  0  0  0
  5  6  1  0  0  0  0
  6  8  1  0  0  0  0
  6  7  2  0  0  0  0
  8 12  1  0  0  0  0
  9 10  2  0  0  0  0
 10 11  1  0  0  0  0
 12 13  1  0  0  0  0
 13 14  1  0  0  0  0
 14 19  2  0  0  0  0
 14 15  1  0  0  0  0
 15 16  2  0  0  0  0
 16 17  1  0  0  0  0
 17 18  2  0  0  0  0
 17 20  1  0  0  0  0
 18 19  1  0  0  0  0
 20 23  1  0  0  0  0
 20 22  1  0  0  0  0
 20 21  1  0  0  0  0
M  END
>  <MODEL>
      15

>  <COMPND>
    UNNAMED

>  <AUTHOR>
    GENERATED BY OPEN BABEL 2.4.90

>  <MASTER>
        0    0    0    0    0    0    0    0   23    0   23    0

