__3w7l_A_rec_3w23_3ro_lig_min.pdb
 OpenBabel10201912023D

 20 21  0  0  0  0  0  0  0  0999 V2000
    5.8590  -13.7180  -14.1650 C   0  0  0  0  0  0  0  0  0  0  0  0
    5.5740  -12.9130  -15.3050 N   0  0  0  0  0  0  0  0  0  0  0  0
    5.7780  -11.5320  -15.3270 C   0  0  0  0  0  0  0  0  0  0  0  0
    5.4630  -10.8190  -16.2940 O   0  0  0  0  0  0  0  0  0  0  0  0
    6.3610  -11.0230  -14.2170 N   0  0  0  0  0  0  0  0  0  0  0  0
    6.7310  -11.7480  -13.0660 C   0  0  0  0  0  0  0  0  0  0  0  0
    7.2490  -11.1330  -12.1140 O   0  0  0  0  0  0  0  0  0  0  0  0
    6.4700  -13.1480  -13.0940 C   0  0  0  0  0  0  0  0  0  0  0  0
    4.2130  -15.3160  -14.0500 O   0  0  0  0  0  0  0  0  0  0  0  0
    5.4270  -15.2100  -14.2800 C   0  0  0  0  0  0  0  0  0  0  0  0
    6.2940  -15.9530  -14.7140 O   0  0  0  0  0  0  0  0  0  0  0  0
    6.8000  -13.8660  -11.9000 C   0  0  0  0  0  0  0  0  0  0  0  0
    5.8110  -13.5540  -10.6400 C   0  0  0  0  0  0  0  0  0  0  0  0
    4.6650  -14.2140  -10.6880 C   0  0  0  0  0  0  0  0  0  0  0  0
    4.5950  -15.5380  -10.1840 C   0  0  0  0  0  0  0  0  0  0  0  0
    3.3320  -16.1370  -10.3170 C   0  0  0  0  0  0  0  0  0  0  0  0
    3.2050  -17.8400   -9.7880 Cl  0  0  0  0  0  0  0  0  0  0  0  0
    2.2030  -15.5140  -10.8690 C   0  0  0  0  0  0  0  0  0  0  0  0
    2.2780  -14.2060  -11.2840 C   0  0  0  0  0  0  0  0  0  0  0  0
    3.5140  -13.5310  -11.1600 C   0  0  0  0  0  0  0  0  0  0  0  0
  1  2  1  0  0  0  0
  1 10  1  0  0  0  0
  1  8  2  0  0  0  0
  2  3  2  0  0  0  0
  3  4  2  0  0  0  0
  3  5  1  0  0  0  0
  5  6  1  0  0  0  0
  6  8  1  0  0  0  0
  6  7  2  0  0  0  0
  8 12  1  0  0  0  0
  9 10  2  0  0  0  0
 10 11  1  0  0  0  0
 12 13  1  0  0  0  0
 13 14  1  0  0  0  0
 14 20  2  0  0  0  0
 14 15  1  0  0  0  0
 15 16  2  0  0  0  0
 16 18  1  0  0  0  0
 16 17  1  0  0  0  0
 18 19  2  0  0  0  0
 19 20  1  0  0  0  0
M  END
>  <COMPND>
    UNNAMED

>  <AUTHOR>
    GENERATED BY OPEN BABEL 2.4.90

>  <MASTER>
        0    0    0    0    0    0    0    0   20    0   20    0

