__3w7l_A_rec_2e6d_fum_lig_min.pdb
 OpenBabel10201913373D

  8  7  0  0  0  0  0  0  0  0999 V2000
    5.4380  -13.4440  -14.3760 C   0  0  0  0  0  0  0  0  0  0  0  0
    4.6650  -13.0080  -13.3860 C   0  0  0  0  0  0  0  0  0  0  0  0
    7.7620  -13.3490  -13.8300 O   0  0  0  0  0  0  0  0  0  0  0  0
    6.7400  -14.0370  -13.9740 C   0  0  0  0  0  0  0  0  0  0  0  0
    6.7570  -15.2750  -13.7970 O   0  0  0  0  0  0  0  0  0  0  0  0
    3.3200  -12.4420  -13.6160 C   0  0  0  0  0  0  0  0  0  0  0  0
    2.9750  -11.5440  -12.8470 O   0  0  0  0  0  0  0  0  0  0  0  0
    2.5450  -12.8990  -14.5030 O   0  0  0  0  0  0  0  0  0  0  0  0
  1  4  1  0  0  0  0
  1  2  2  0  0  0  0
  2  6  1  0  0  0  0
  3  4  2  0  0  0  0
  4  5  1  0  0  0  0
  6  8  2  0  0  0  0
  6  7  1  0  0  0  0
M  END
>  <COMPND>
    UNNAMED

>  <AUTHOR>
    GENERATED BY OPEN BABEL 2.4.90

>  <MASTER>
        0    0    0    0    0    0    0    0    8    0    8    0

