__3w7m_B_rec_2e6f_oxc_lig_min.pdb
 OpenBabel10201914493D

 11 11  0  0  0  0  0  0  0  0999 V2000
    5.8810  -11.0970  -13.4960 N   0  0  0  0  0  4  0  0  0  0  0  0
    5.3260  -11.4830  -14.6730 C   0  0  0  0  0  0  0  0  0  0  0  0
    4.9840  -10.6210  -15.5190 O   0  0  0  0  0  0  0  0  0  0  0  0
    5.1530  -12.7980  -14.9190 N   0  0  0  0  0  0  0  0  0  0  0  0
    5.5390  -13.6910  -13.9750 C   0  0  0  0  0  0  0  0  0  0  0  0
    6.0810  -13.3160  -12.7930 N   0  0  0  0  0  0  0  0  0  0  0  0
    6.2620  -11.9980  -12.5520 C   0  0  0  0  0  0  0  0  0  0  0  0
    6.7570  -11.6110  -11.4720 O   0  0  0  0  0  0  0  0  0  0  0  0
    5.2730  -15.1380  -14.1960 C   0  0  0  0  0  0  0  0  0  0  0  0
    6.1800  -15.9760  -14.3890 O   0  0  0  0  0  0  0  0  0  0  0  0
    4.0550  -15.4310  -14.1120 O   0  0  0  0  0  0  0  0  0  0  0  0
  1  2  2  0  0  0  0
  1  7  2  0  0  0  0
  2  3  2  0  0  0  0
  2  4  1  0  0  0  0
  4  5  2  0  0  0  0
  5  9  1  0  0  0  0
  5  6  1  0  0  0  0
  6  7  1  0  0  0  0
  7  8  2  0  0  0  0
  9 10  2  0  0  0  0
  9 11  1  0  0  0  0
M  END
>  <COMPND>
    UNNAMED

>  <AUTHOR>
    GENERATED BY OPEN BABEL 2.4.90

>  <MASTER>
        0    0    0    0    0    0    0    0   11    0   11    0

