__3w7m_B_rec_3w1a_fot_lig_docked.pdb
 OpenBabel10201915263D

 12 12  0  0  0  0  0  0  0  0999 V2000
    4.2700  -11.4840  -13.6790 C   0  0  0  0  0  0  0  0  0  0  0  0
    6.1050  -11.5940  -12.1950 C   0  0  0  0  0  0  0  0  0  0  0  0
    6.2070  -12.9610  -12.5060 C   0  0  0  0  0  0  0  0  0  0  0  0
    3.3740  -10.7410  -14.2170 O   0  0  0  0  0  0  0  0  0  0  0  0
    4.3960  -12.7790  -14.0030 N   0  0  0  0  0  0  0  0  0  0  0  0
    5.1050  -10.9050  -12.7410 N   0  0  0  0  0  0  0  0  0  0  0  0
    6.8320  -11.0520  -11.3520 O   0  0  0  0  0  0  0  0  0  0  0  0
    7.1790  -13.6450  -11.9860 F   0  0  0  0  0  0  0  0  0  0  0  0
    5.3360  -13.5460  -13.4440 C   0  0  0  0  0  0  0  0  0  0  0  0
    5.3050  -15.0110  -13.6240 C   0  0  0  0  0  0  0  0  0  0  0  0
    4.3730  -15.5270  -12.9240 O   0  0  0  0  0  0  0  0  0  0  0  0
    6.1640  -15.6680  -14.2370 O   0  0  0  0  0  0  0  0  0  0  0  0
  1  4  2  0  0  0  0
  1  5  2  0  0  0  0
  1  6  1  0  0  0  0
  2  6  1  0  0  0  0
  2  3  1  0  0  0  0
  2  7  2  0  0  0  0
  3  9  2  0  0  0  0
  3  8  1  0  0  0  0
  5  9  1  0  0  0  0
  9 10  1  0  0  0  0
 10 11  2  0  0  0  0
 10 12  1  0  0  0  0
M  END
>  <MODEL>
      12

>  <COMPND>
    UNNAMED

>  <AUTHOR>
    GENERATED BY OPEN BABEL 2.4.90

>  <MASTER>
        0    0    0    0    0    0    0    0   12    0   12    0

