__3w7m_B_rec_3w23_3ro_lig_min.pdb
 OpenBabel10201913153D

 20 21  0  0  0  0  0  0  0  0999 V2000
    5.6940  -13.5790  -14.1660 C   0  0  0  0  0  0  0  0  0  0  0  0
    5.3790  -12.7190  -15.2570 N   0  0  0  0  0  0  0  0  0  0  0  0
    5.7120  -11.3630  -15.2710 C   0  0  0  0  0  0  0  0  0  0  0  0
    5.3760  -10.5960  -16.1880 O   0  0  0  0  0  0  0  0  0  0  0  0
    6.4450  -10.9430  -14.2130 N   0  0  0  0  0  0  0  0  0  0  0  0
    6.8520  -11.7330  -13.1200 C   0  0  0  0  0  0  0  0  0  0  0  0
    7.5150  -11.1960  -12.2100 O   0  0  0  0  0  0  0  0  0  0  0  0
    6.4560  -13.1000  -13.1490 C   0  0  0  0  0  0  0  0  0  0  0  0
    3.8710  -14.9760  -14.2530 O   0  0  0  0  0  0  0  0  0  0  0  0
    5.1110  -15.0200  -14.2680 C   0  0  0  0  0  0  0  0  0  0  0  0
    5.9440  -15.8840  -14.4950 O   0  0  0  0  0  0  0  0  0  0  0  0
    6.8280  -13.8800  -12.0080 C   0  0  0  0  0  0  0  0  0  0  0  0
    5.9950  -13.5170  -10.6520 C   0  0  0  0  0  0  0  0  0  0  0  0
    4.8400  -14.1560  -10.5500 C   0  0  0  0  0  0  0  0  0  0  0  0
    4.8070  -15.4650  -10.0050 C   0  0  0  0  0  0  0  0  0  0  0  0
    3.5290  -16.0430   -9.9760 C   0  0  0  0  0  0  0  0  0  0  0  0
    3.4360  -17.7290   -9.3890 Cl  0  0  0  0  0  0  0  0  0  0  0  0
    2.3530  -15.4140  -10.4120 C   0  0  0  0  0  0  0  0  0  0  0  0
    2.4010  -14.1180  -10.8690 C   0  0  0  0  0  0  0  0  0  0  0  0
    3.6540  -13.4630  -10.9060 C   0  0  0  0  0  0  0  0  0  0  0  0
  1  2  1  0  0  0  0
  1 10  1  0  0  0  0
  1  8  2  0  0  0  0
  2  3  2  0  0  0  0
  3  4  2  0  0  0  0
  3  5  1  0  0  0  0
  5  6  1  0  0  0  0
  6  8  1  0  0  0  0
  6  7  2  0  0  0  0
  8 12  1  0  0  0  0
  9 10  2  0  0  0  0
 10 11  1  0  0  0  0
 12 13  1  0  0  0  0
 13 14  1  0  0  0  0
 14 20  2  0  0  0  0
 14 15  1  0  0  0  0
 15 16  2  0  0  0  0
 16 18  1  0  0  0  0
 16 17  1  0  0  0  0
 18 19  2  0  0  0  0
 19 20  1  0  0  0  0
M  END
>  <COMPND>
    UNNAMED

>  <AUTHOR>
    GENERATED BY OPEN BABEL 2.4.90

>  <MASTER>
        0    0    0    0    0    0    0    0   20    0   20    0

