__3w7m_B_rec_3w3o_roe_lig_min.pdb
 OpenBabel10201912373D

 25 27  0  0  0  0  0  0  0  0999 V2000
    6.5480  -14.0060  -11.9030 C   0  0  0  0  0  0  0  0  0  0  0  0
    5.6860  -13.6060  -14.1450 C   0  0  0  0  0  0  0  0  0  0  0  0
    5.3680  -12.7050  -15.2180 N   0  0  0  0  0  0  0  0  0  0  0  0
    5.7330  -11.3570  -15.1810 C   0  0  0  0  0  0  0  0  0  0  0  0
    5.4250  -10.5780  -16.0990 O   0  0  0  0  0  0  0  0  0  0  0  0
    6.3990  -10.9150  -14.0450 N   0  0  0  0  0  0  0  0  0  0  0  0
    6.7030  -11.7490  -12.9140 C   0  0  0  0  0  0  0  0  0  0  0  0
    7.3270  -11.2370  -11.9490 O   0  0  0  0  0  0  0  0  0  0  0  0
    6.3240  -13.1400  -12.9790 C   0  0  0  0  0  0  0  0  0  0  0  0
    3.9390  -15.1060  -14.3750 O   0  0  0  0  0  0  0  0  0  0  0  0
    5.2020  -14.9470  -14.3320 C   0  0  0  0  0  0  0  0  0  0  0  0
    5.9940  -15.9310  -14.4390 O   0  0  0  0  0  0  0  0  0  0  0  0
    5.6290  -13.5080  -10.6580 C   0  0  0  0  0  0  0  0  0  0  0  0
    4.4580  -14.4170  -10.5910 C   0  0  0  0  0  0  0  0  0  0  0  0
    3.2180  -14.1790  -11.2050 C   0  0  0  0  0  0  0  0  0  0  0  0
    2.2290  -15.1880  -11.0440 C   0  0  0  0  0  0  0  0  0  0  0  0
    1.0370  -14.9910  -11.6650 C   0  0  0  0  0  0  0  0  0  0  0  0
    0.0650  -15.9370  -11.5660 C   0  0  0  0  0  0  0  0  0  0  0  0
    0.1790  -17.0990  -10.8370 C   0  0  0  0  0  0  0  0  0  0  0  0
    1.3590  -17.3670  -10.1960 C   0  0  0  0  0  0  0  0  0  0  0  0
    2.3540  -16.3800  -10.3190 C   0  0  0  0  0  0  0  0  0  0  0  0
    3.5340  -16.5970   -9.6870 C   0  0  0  0  0  0  0  0  0  0  0  0
    4.5370  -15.6110   -9.8760 C   0  0  0  0  0  0  0  0  0  0  0  0
   -0.8870  -17.9730  -10.7780 O   0  0  0  0  0  0  0  0  0  0  0  0
   -2.1380  -17.3360  -10.8250 C   0  0  0  0  0  0  0  0  0  0  0  0
  1  9  1  0  0  0  0
  1 13  1  0  0  0  0
  2  3  1  0  0  0  0
  2 11  1  0  0  0  0
  2  9  2  0  0  0  0
  3  4  2  0  0  0  0
  4  5  2  0  0  0  0
  4  6  1  0  0  0  0
  6  7  1  0  0  0  0
  7  9  1  0  0  0  0
  7  8  2  0  0  0  0
 10 11  2  0  0  0  0
 11 12  1  0  0  0  0
 13 14  1  0  0  0  0
 14 15  2  0  0  0  0
 14 23  1  0  0  0  0
 15 16  1  0  0  0  0
 16 17  2  0  0  0  0
 16 21  1  0  0  0  0
 17 18  1  0  0  0  0
 18 19  2  0  0  0  0
 19 24  1  0  0  0  0
 19 20  1  0  0  0  0
 20 21  2  0  0  0  0
 21 22  1  0  0  0  0
 22 23  2  0  0  0  0
 24 25  1  0  0  0  0
M  END
>  <COMPND>
    UNNAMED

>  <AUTHOR>
    GENERATED BY OPEN BABEL 2.4.90

>  <MASTER>
        0    0    0    0    0    0    0    0   25    0   25    0

