__3w7n_B_rec_3w7c_w7c_lig_docked.pdb
 OpenBabel10201916503D

 25 27  0  0  0  0  0  0  0  0999 V2000
    6.8280  -13.7610  -12.3990 C   0  0  0  0  0  0  0  0  0  0  0  0
    6.1840  -13.7520  -14.6950 C   0  0  0  0  0  0  0  0  0  0  0  0
    6.0590  -13.1030  -15.9690 N   0  0  0  0  0  0  0  0  0  0  0  0
    6.6780  -11.8700  -16.1400 C   0  0  0  0  0  0  0  0  0  0  0  0
    6.5770  -11.2780  -17.2120 O   0  0  0  0  0  0  0  0  0  0  0  0
    7.3410  -11.2920  -15.0890 N   0  0  0  0  0  0  0  0  0  0  0  0
    7.4110  -11.8820  -13.7910 C   0  0  0  0  0  0  0  0  0  0  0  0
    8.0520  -11.2790  -12.9320 O   0  0  0  0  0  0  0  0  0  0  0  0
    6.8320  -13.1240  -13.6090 C   0  0  0  0  0  0  0  0  0  0  0  0
    4.2210  -15.0660  -14.4750 O   0  0  0  0  0  0  0  0  0  0  0  0
    5.4610  -14.9950  -14.6230 C   0  0  0  0  0  0  0  0  0  0  0  0
    6.1530  -16.0160  -14.6070 O   0  0  0  0  0  0  0  0  0  0  0  0
    5.9630  -12.9980  -11.3300 C   0  0  0  0  0  0  0  0  0  0  0  0
    4.7770  -13.7840  -11.1070 C   0  0  0  0  0  0  0  0  0  0  0  0
    4.7400  -15.0650  -10.5640 C   0  0  0  0  0  0  0  0  0  0  0  0
    3.5590  -13.2220  -11.5000 C   0  0  0  0  0  0  0  0  0  0  0  0
    2.3630  -13.8820  -11.3830 C   0  0  0  0  0  0  0  0  0  0  0  0
    2.3170  -15.1650  -10.8830 C   0  0  0  0  0  0  0  0  0  0  0  0
    3.5040  -15.7420  -10.3910 C   0  0  0  0  0  0  0  0  0  0  0  0
    3.4070  -17.0340   -9.8690 C   0  0  0  0  0  0  0  0  0  0  0  0
    2.1820  -17.7010   -9.8230 C   0  0  0  0  0  0  0  0  0  0  0  0
    0.9970  -17.0900  -10.2370 C   0  0  0  0  0  0  0  0  0  0  0  0
    1.0720  -15.8100  -10.7690 C   0  0  0  0  0  0  0  0  0  0  0  0
   -0.0080  -15.0400  -11.1960 O   0  0  0  0  0  0  0  0  0  0  0  0
   -1.0500  -14.8100  -10.2980 C   0  0  0  0  0  0  0  0  0  0  0  0
  1  9  1  0  0  0  0
  1 13  1  0  0  0  0
  2  3  1  0  0  0  0
  2 11  1  0  0  0  0
  2  9  2  0  0  0  0
  3  4  2  0  0  0  0
  4  5  2  0  0  0  0
  4  6  1  0  0  0  0
  6  7  1  0  0  0  0
  7  9  1  0  0  0  0
  7  8  2  0  0  0  0
 10 11  2  0  0  0  0
 11 12  1  0  0  0  0
 13 14  1  0  0  0  0
 14 16  2  0  0  0  0
 14 15  1  0  0  0  0
 15 19  2  0  0  0  0
 16 17  1  0  0  0  0
 17 18  2  0  0  0  0
 18 23  1  0  0  0  0
 18 19  1  0  0  0  0
 19 20  1  0  0  0  0
 20 21  2  0  0  0  0
 21 22  1  0  0  0  0
 22 23  2  0  0  0  0
 23 24  1  0  0  0  0
 24 25  1  0  0  0  0
M  END
>  <MODEL>
      10

>  <COMPND>
    UNNAMED

>  <AUTHOR>
    GENERATED BY OPEN BABEL 2.4.90

>  <MASTER>
        0    0    0    0    0    0    0    0   25    0   25    0

