__3w7n_B_rec_3w7n_w7n_lig_min.pdb
 OpenBabel10201914263D

 29 31  0  0  0  0  0  0  0  0999 V2000
    4.5040  -14.0520  -10.7970 C   0  0  0  0  0  0  0  0  0  0  0  0
    4.4170  -15.3660  -10.3050 C   0  0  0  0  0  0  0  0  0  0  0  0
    3.3570  -13.4850  -11.3390 C   0  0  0  0  0  0  0  0  0  0  0  0
    2.1490  -14.1740  -11.4110 C   0  0  0  0  0  0  0  0  0  0  0  0
    2.0660  -15.4630  -10.9170 C   0  0  0  0  0  0  0  0  0  0  0  0
    0.8410  -16.1280  -10.9860 C   0  0  0  0  0  0  0  0  0  0  0  0
    3.1970  -16.0830  -10.3550 C   0  0  0  0  0  0  0  0  0  0  0  0
    3.1010  -17.3920   -9.8430 C   0  0  0  0  0  0  0  0  0  0  0  0
    1.8800  -18.0660   -9.9140 C   0  0  0  0  0  0  0  0  0  0  0  0
    0.7540  -17.4340  -10.4850 C   0  0  0  0  0  0  0  0  0  0  0  0
   -0.4560  -18.1210  -10.5830 C   0  0  0  0  0  0  0  0  0  0  0  0
   -0.5580  -19.2450  -10.0840 O   0  0  0  0  0  0  0  0  0  0  0  0
   -1.4030  -17.5680  -11.3720 N   0  0  0  0  0  0  0  0  0  0  0  0
   -2.7210  -18.2190  -11.5580 C   0  0  0  0  0  0  0  0  0  0  0  0
   -3.7190  -17.8730  -10.4130 C   0  0  0  0  0  0  0  0  0  0  0  0
   -3.5450  -18.7040   -9.2410 O   0  0  0  0  0  0  0  0  0  0  0  0
    5.7020  -13.3370  -10.7900 C   0  0  0  0  0  0  0  0  0  0  0  0
    6.6180  -13.8230  -12.0000 C   0  0  0  0  0  0  0  0  0  0  0  0
    5.7430  -13.5850  -14.3670 C   0  0  0  0  0  0  0  0  0  0  0  0
    5.5450  -12.7690  -15.5500 N   0  0  0  0  0  0  0  0  0  0  0  0
    5.9690  -11.4180  -15.5590 C   0  0  0  0  0  0  0  0  0  0  0  0
    5.7810  -10.7180  -16.5370 O   0  0  0  0  0  0  0  0  0  0  0  0
    6.6100  -10.8990  -14.4320 N   0  0  0  0  0  0  0  0  0  0  0  0
    6.8270  -11.6860  -13.2540 C   0  0  0  0  0  0  0  0  0  0  0  0
    7.4230  -11.1460  -12.2960 O   0  0  0  0  0  0  0  0  0  0  0  0
    6.3980  -13.0310  -13.2160 C   0  0  0  0  0  0  0  0  0  0  0  0
    6.0380  -15.9220  -14.6600 O   0  0  0  0  0  0  0  0  0  0  0  0
    5.2630  -14.9270  -14.4730 C   0  0  0  0  0  0  0  0  0  0  0  0
    4.0090  -15.1080  -14.4390 O   0  0  0  0  0  0  0  0  0  0  0  0
  1  3  2  0  0  0  0
  1 17  1  0  0  0  0
  1  2  1  0  0  0  0
  2  7  2  0  0  0  0
  3  4  1  0  0  0  0
  4  5  2  0  0  0  0
  5  6  1  0  0  0  0
  5  7  1  0  0  0  0
  6 10  2  0  0  0  0
  7  8  1  0  0  0  0
  8  9  2  0  0  0  0
  9 10  1  0  0  0  0
 10 11  1  0  0  0  0
 11 13  1  0  0  0  0
 11 12  2  0  0  0  0
 13 14  1  0  0  0  0
 14 15  1  0  0  0  0
 15 16  1  0  0  0  0
 17 18  1  0  0  0  0
 18 26  1  0  0  0  0
 19 20  1  0  0  0  0
 19 28  1  0  0  0  0
 19 26  2  0  0  0  0
 20 21  2  0  0  0  0
 21 22  2  0  0  0  0
 21 23  1  0  0  0  0
 23 24  1  0  0  0  0
 24 26  1  0  0  0  0
 24 25  2  0  0  0  0
 27 28  2  0  0  0  0
 28 29  1  0  0  0  0
M  END
>  <COMPND>
    UNNAMED

>  <AUTHOR>
    GENERATED BY OPEN BABEL 2.4.90

>  <MASTER>
        0    0    0    0    0    0    0    0   29    0   29    0

