__3w7n_B_rec_3w1x_xro_lig_docked.pdb
 OpenBabel10201916503D

 22 23  0  0  0  0  0  0  0  0999 V2000
    5.7930  -13.6180  -14.6430 C   0  0  0  0  0  0  0  0  0  0  0  0
    5.5350  -12.6110  -15.5810 N   0  0  0  0  0  0  0  0  0  0  0  0
    6.2530  -11.4660  -15.6450 C   0  0  0  0  0  0  0  0  0  0  0  0
    5.9870  -10.5660  -16.4870 O   0  0  0  0  0  0  0  0  0  0  0  0
    7.2670  -11.3150  -14.7630 N   0  0  0  0  0  0  0  0  0  0  0  0
    7.6590  -12.3320  -13.8460 C   0  0  0  0  0  0  0  0  0  0  0  0
    8.5840  -12.0550  -13.0790 O   0  0  0  0  0  0  0  0  0  0  0  0
    6.8150  -13.4600  -13.7650 C   0  0  0  0  0  0  0  0  0  0  0  0
    5.2200  -15.8770  -14.5740 O   0  0  0  0  0  0  0  0  0  0  0  0
    4.7930  -14.7090  -14.6590 C   0  0  0  0  0  0  0  0  0  0  0  0
    3.5740  -14.4070  -14.7880 O   0  0  0  0  0  0  0  0  0  0  0  0
    7.1150  -14.5030  -12.7060 C   0  0  0  0  0  0  0  0  0  0  0  0
    6.6420  -14.0260  -11.2530 C   0  0  0  0  0  0  0  0  0  0  0  0
    5.2190  -14.2040  -11.1530 C   0  0  0  0  0  0  0  0  0  0  0  0
    4.6200  -15.4660  -11.0950 C   0  0  0  0  0  0  0  0  0  0  0  0
    3.2080  -15.6170  -11.1290 C   0  0  0  0  0  0  0  0  0  0  0  0
    2.3970  -14.5560  -11.1940 C   0  0  0  0  0  0  0  0  0  0  0  0
    2.9350  -13.3070  -11.2240 C   0  0  0  0  0  0  0  0  0  0  0  0
    4.3350  -13.1180  -11.2040 C   0  0  0  0  0  0  0  0  0  0  0  0
    0.9110  -14.6640  -11.2680 C   0  0  0  0  0  0  0  0  0  0  0  0
    0.5560  -15.4480  -12.4780 C   0  0  0  0  0  0  0  0  0  0  0  0
    0.3090  -16.0490  -13.4470 N   0  0  0  0  0  0  0  0  0  0  0  0
  1  2  1  0  0  0  0
  1 10  1  0  0  0  0
  1  8  2  0  0  0  0
  2  3  2  0  0  0  0
  3  4  2  0  0  0  0
  3  5  1  0  0  0  0
  5  6  1  0  0  0  0
  6  8  1  0  0  0  0
  6  7  2  0  0  0  0
  8 12  1  0  0  0  0
  9 10  2  0  0  0  0
 10 11  1  0  0  0  0
 12 13  1  0  0  0  0
 13 14  1  0  0  0  0
 14 19  2  0  0  0  0
 14 15  1  0  0  0  0
 15 16  2  0  0  0  0
 16 17  1  0  0  0  0
 17 20  1  0  0  0  0
 17 18  2  0  0  0  0
 18 19  1  0  0  0  0
 20 21  1  0  0  0  0
 21 22  3  0  0  0  0
M  END
>  <MODEL>
       4

>  <COMPND>
    UNNAMED

>  <AUTHOR>
    GENERATED BY OPEN BABEL 2.4.90

>  <MASTER>
        0    0    0    0    0    0    0    0   22    0   22    0

