__3w7n_B_rec_3w22_2ro_lig_docked.pdb
 OpenBabel10201916513D

 23 24  0  0  0  0  0  0  0  0999 V2000
    6.0560  -13.7450  -14.5790 C   0  0  0  0  0  0  0  0  0  0  0  0
    5.9280  -13.0130  -15.7890 N   0  0  0  0  0  0  0  0  0  0  0  0
    6.5190  -11.7500  -15.9540 C   0  0  0  0  0  0  0  0  0  0  0  0
    6.4370  -11.1130  -17.0140 O   0  0  0  0  0  0  0  0  0  0  0  0
    7.2080  -11.2180  -14.8830 N   0  0  0  0  0  0  0  0  0  0  0  0
    7.2820  -11.8710  -13.6200 C   0  0  0  0  0  0  0  0  0  0  0  0
    7.8750  -11.2520  -12.7070 O   0  0  0  0  0  0  0  0  0  0  0  0
    6.6850  -13.1640  -13.4600 C   0  0  0  0  0  0  0  0  0  0  0  0
    4.1130  -15.0740  -14.4200 O   0  0  0  0  0  0  0  0  0  0  0  0
    5.3500  -14.9940  -14.5520 C   0  0  0  0  0  0  0  0  0  0  0  0
    6.0400  -16.0390  -14.6830 O   0  0  0  0  0  0  0  0  0  0  0  0
    6.7260  -13.8680  -12.2760 C   0  0  0  0  0  0  0  0  0  0  0  0
    5.9150  -13.0960  -11.1880 C   0  0  0  0  0  0  0  0  0  0  0  0
    4.6880  -13.8340  -11.0860 C   0  0  0  0  0  0  0  0  0  0  0  0
    3.4860  -13.1740  -11.3140 C   0  0  0  0  0  0  0  0  0  0  0  0
    2.2490  -13.8390  -11.2530 C   0  0  0  0  0  0  0  0  0  0  0  0
    2.1470  -15.2180  -10.9460 C   0  0  0  0  0  0  0  0  0  0  0  0
    3.3730  -15.8720  -10.7500 C   0  0  0  0  0  0  0  0  0  0  0  0
    4.5990  -15.1860  -10.8210 C   0  0  0  0  0  0  0  0  0  0  0  0
    0.7850  -15.7960  -10.9630 C   0  0  0  0  0  0  0  0  0  0  0  0
   -0.2640  -14.9070  -10.2000 C   0  0  0  0  0  0  0  0  0  0  0  0
    0.2870  -15.8520  -12.4590 C   0  0  0  0  0  0  0  0  0  0  0  0
    0.7370  -17.2570  -10.3890 C   0  0  0  0  0  0  0  0  0  0  0  0
  1  2  1  0  0  0  0
  1 10  1  0  0  0  0
  1  8  2  0  0  0  0
  2  3  2  0  0  0  0
  3  4  2  0  0  0  0
  3  5  1  0  0  0  0
  5  6  1  0  0  0  0
  6  8  1  0  0  0  0
  6  7  2  0  0  0  0
  8 12  1  0  0  0  0
  9 10  2  0  0  0  0
 10 11  1  0  0  0  0
 12 13  1  0  0  0  0
 13 14  1  0  0  0  0
 14 15  2  0  0  0  0
 14 19  1  0  0  0  0
 15 16  1  0  0  0  0
 16 17  2  0  0  0  0
 17 20  1  0  0  0  0
 17 18  1  0  0  0  0
 18 19  2  0  0  0  0
 20 22  1  0  0  0  0
 20 21  1  0  0  0  0
 20 23  1  0  0  0  0
M  END
>  <MODEL>
       6

>  <COMPND>
    UNNAMED

>  <AUTHOR>
    GENERATED BY OPEN BABEL 2.4.90

>  <MASTER>
        0    0    0    0    0    0    0    0   23    0   23    0

