__3w7n_B_rec_3w7h_w7h_lig_docked.pdb
 OpenBabel10201916503D

 23 25  0  0  0  0  0  0  0  0999 V2000
    5.8520  -13.6830  -14.1790 C   0  0  0  0  0  0  0  0  0  0  0  0
    5.4900  -12.8740  -15.2900 N   0  0  0  0  0  0  0  0  0  0  0  0
    5.8280  -11.5500  -15.3420 C   0  0  0  0  0  0  0  0  0  0  0  0
    5.4630  -10.8630  -16.2930 O   0  0  0  0  0  0  0  0  0  0  0  0
    6.4820  -11.0520  -14.2410 N   0  0  0  0  0  0  0  0  0  0  0  0
    6.7480  -11.7600  -13.0530 C   0  0  0  0  0  0  0  0  0  0  0  0
    7.3760  -11.2310  -12.1160 O   0  0  0  0  0  0  0  0  0  0  0  0
    6.4570  -13.1600  -13.0860 C   0  0  0  0  0  0  0  0  0  0  0  0
    6.2110  -15.9040  -14.7580 O   0  0  0  0  0  0  0  0  0  0  0  0
    5.3770  -15.0990  -14.3240 C   0  0  0  0  0  0  0  0  0  0  0  0
    4.2260  -15.3960  -14.0120 O   0  0  0  0  0  0  0  0  0  0  0  0
    6.7180  -13.9220  -11.9410 C   0  0  0  0  0  0  0  0  0  0  0  0
    5.8180  -13.4190  -10.6990 C   0  0  0  0  0  0  0  0  0  0  0  0
    4.5580  -14.0960  -10.7170 C   0  0  0  0  0  0  0  0  0  0  0  0
    4.4160  -15.4040  -10.2430 C   0  0  0  0  0  0  0  0  0  0  0  0
    3.1240  -16.0450  -10.3300 C   0  0  0  0  0  0  0  0  0  0  0  0
    2.9560  -17.3570   -9.8790 C   0  0  0  0  0  0  0  0  0  0  0  0
    1.7220  -17.9750  -10.0010 C   0  0  0  0  0  0  0  0  0  0  0  0
    0.5940  -17.3360  -10.5160 C   0  0  0  0  0  0  0  0  0  0  0  0
    0.7220  -16.0120  -10.9230 C   0  0  0  0  0  0  0  0  0  0  0  0
    2.0080  -15.3950  -10.8590 C   0  0  0  0  0  0  0  0  0  0  0  0
    2.1670  -14.0860  -11.2890 C   0  0  0  0  0  0  0  0  0  0  0  0
    3.4130  -13.4440  -11.2090 C   0  0  0  0  0  0  0  0  0  0  0  0
  1  2  1  0  0  0  0
  1 10  1  0  0  0  0
  1  8  2  0  0  0  0
  2  3  2  0  0  0  0
  3  4  2  0  0  0  0
  3  5  1  0  0  0  0
  5  6  1  0  0  0  0
  6  8  1  0  0  0  0
  6  7  2  0  0  0  0
  8 12  1  0  0  0  0
  9 10  2  0  0  0  0
 10 11  1  0  0  0  0
 12 13  1  0  0  0  0
 13 14  1  0  0  0  0
 14 23  2  0  0  0  0
 14 15  1  0  0  0  0
 15 16  2  0  0  0  0
 16 21  1  0  0  0  0
 16 17  1  0  0  0  0
 17 18  2  0  0  0  0
 18 19  1  0  0  0  0
 19 20  2  0  0  0  0
 20 21  1  0  0  0  0
 21 22  2  0  0  0  0
 22 23  1  0  0  0  0
M  END
>  <MODEL>
       4

>  <COMPND>
    UNNAMED

>  <AUTHOR>
    GENERATED BY OPEN BABEL 2.4.90

>  <MASTER>
        0    0    0    0    0    0    0    0   23    0   23    0

