__3w7o_B_rec_2e6f_oxc_lig_min.pdb
 OpenBabel10201914503D

 11 11  0  0  0  0  0  0  0  0999 V2000
    6.1790  -11.0360  -13.1790 N   0  0  0  0  0  4  0  0  0  0  0  0
    5.4910  -11.2990  -14.3190 C   0  0  0  0  0  0  0  0  0  0  0  0
    5.1020  -10.3550  -15.0490 O   0  0  0  0  0  0  0  0  0  0  0  0
    5.2380  -12.5810  -14.6540 N   0  0  0  0  0  0  0  0  0  0  0  0
    5.6790  -13.5650  -13.8330 C   0  0  0  0  0  0  0  0  0  0  0  0
    6.3550  -13.3130  -12.6870 N   0  0  0  0  0  0  0  0  0  0  0  0
    6.6160  -12.0280  -12.3580 C   0  0  0  0  0  0  0  0  0  0  0  0
    7.2340  -11.7540  -11.3070 O   0  0  0  0  0  0  0  0  0  0  0  0
    5.3310  -14.9770  -14.1440 C   0  0  0  0  0  0  0  0  0  0  0  0
    6.1860  -15.8450  -14.4210 O   0  0  0  0  0  0  0  0  0  0  0  0
    4.1010  -15.2120  -14.0450 O   0  0  0  0  0  0  0  0  0  0  0  0
  1  2  2  0  0  0  0
  1  7  2  0  0  0  0
  2  3  2  0  0  0  0
  2  4  1  0  0  0  0
  4  5  2  0  0  0  0
  5  9  1  0  0  0  0
  5  6  1  0  0  0  0
  6  7  1  0  0  0  0
  7  8  2  0  0  0  0
  9 10  2  0  0  0  0
  9 11  1  0  0  0  0
M  END
>  <COMPND>
    UNNAMED

>  <AUTHOR>
    GENERATED BY OPEN BABEL 2.4.90

>  <MASTER>
        0    0    0    0    0    0    0    0   11    0   11    0

