__3w7o_B_rec_3w1n_iro_lig_min.pdb
 OpenBabel10201912143D

 12 12  0  0  1  0  0  0  0  0999 V2000
    4.9150  -13.2930  -13.8700 C   0  0  0  0  0  0  0  0  0  0  0  0
    5.7610  -12.5770  -13.0070 C   0  0  2  0  0  0  0  0  0  0  0  0
    7.1470  -13.6140  -11.7530 I   0  0  0  0  0  0  0  0  0  0  0  0
    5.7190  -11.1950  -12.9400 C   0  0  0  0  0  0  0  0  0  0  0  0
    6.4640  -10.5780  -12.1800 O   0  0  0  0  0  0  0  0  0  0  0  0
    4.8180  -10.5230  -13.7570 N   0  0  0  0  0  0  0  0  0  0  0  0
    3.9750  -11.2400  -14.5970 C   0  0  0  0  0  0  0  0  0  0  0  0
    3.1830  -10.6250  -15.2800 O   0  0  0  0  0  0  0  0  0  0  0  0
    4.0160  -12.6270  -14.6580 N   0  0  0  0  0  0  0  0  0  0  0  0
    4.0900  -15.2140  -13.0290 O   0  0  0  0  0  0  0  0  0  0  0  0
    4.8850  -14.6870  -13.8350 C   0  0  0  0  0  0  0  0  0  0  0  0
    5.7190  -15.4360  -14.3530 O   0  0  0  0  0  0  0  0  0  0  0  0
  1  9  2  0  0  0  0
  1 11  1  0  0  0  0
  1  2  1  0  0  0  0
  2  4  1  0  0  0  0
  2  3  1  1  0  0  0
  4  6  1  0  0  0  0
  4  5  2  0  0  0  0
  6  7  2  0  0  0  0
  7  8  2  0  0  0  0
  7  9  1  0  0  0  0
 10 11  2  0  0  0  0
 11 12  1  0  0  0  0
M  END
>  <COMPND>
    UNNAMED

>  <AUTHOR>
    GENERATED BY OPEN BABEL 2.4.90

>  <MASTER>
        0    0    0    0    0    0    0    0   12    0   12    0

