__3w7q_A_rec_3w7h_w7h_lig_min.pdb
 OpenBabel10201911433D

 23 25  0  0  0  0  0  0  0  0999 V2000
    5.8010  -13.5820  -14.3190 C   0  0  0  0  0  0  0  0  0  0  0  0
    5.5390  -12.7700  -15.4550 N   0  0  0  0  0  0  0  0  0  0  0  0
    6.0400  -11.5010  -15.5500 C   0  0  0  0  0  0  0  0  0  0  0  0
    5.7590  -10.8050  -16.5230 O   0  0  0  0  0  0  0  0  0  0  0  0
    6.7560  -11.0540  -14.4660 N   0  0  0  0  0  0  0  0  0  0  0  0
    6.9360  -11.7520  -13.2550 C   0  0  0  0  0  0  0  0  0  0  0  0
    7.6290  -11.2750  -12.3360 O   0  0  0  0  0  0  0  0  0  0  0  0
    6.4720  -13.1040  -13.2430 C   0  0  0  0  0  0  0  0  0  0  0  0
    3.9180  -14.9280  -14.5190 O   0  0  0  0  0  0  0  0  0  0  0  0
    5.1520  -14.9310  -14.4170 C   0  0  0  0  0  0  0  0  0  0  0  0
    5.8420  -15.9480  -14.4010 O   0  0  0  0  0  0  0  0  0  0  0  0
    6.6410  -13.8550  -12.0740 C   0  0  0  0  0  0  0  0  0  0  0  0
    5.6780  -13.3110  -10.8970 C   0  0  0  0  0  0  0  0  0  0  0  0
    4.4890  -14.1040  -10.8480 C   0  0  0  0  0  0  0  0  0  0  0  0
    4.4780  -15.3860  -10.2880 C   0  0  0  0  0  0  0  0  0  0  0  0
    3.2530  -16.1500  -10.3080 C   0  0  0  0  0  0  0  0  0  0  0  0
    3.2170  -17.4390   -9.7710 C   0  0  0  0  0  0  0  0  0  0  0  0
    2.0460  -18.1790   -9.8290 C   0  0  0  0  0  0  0  0  0  0  0  0
    0.8560  -17.6850  -10.3620 C   0  0  0  0  0  0  0  0  0  0  0  0
    0.8510  -16.3840  -10.8560 C   0  0  0  0  0  0  0  0  0  0  0  0
    2.0730  -15.6450  -10.8570 C   0  0  0  0  0  0  0  0  0  0  0  0
    2.1000  -14.3590  -11.3730 C   0  0  0  0  0  0  0  0  0  0  0  0
    3.2800  -13.5970  -11.3590 C   0  0  0  0  0  0  0  0  0  0  0  0
  1  2  1  0  0  0  0
  1 10  1  0  0  0  0
  1  8  2  0  0  0  0
  2  3  2  0  0  0  0
  3  4  2  0  0  0  0
  3  5  1  0  0  0  0
  5  6  1  0  0  0  0
  6  8  1  0  0  0  0
  6  7  2  0  0  0  0
  8 12  1  0  0  0  0
  9 10  2  0  0  0  0
 10 11  1  0  0  0  0
 12 13  1  0  0  0  0
 13 14  1  0  0  0  0
 14 23  2  0  0  0  0
 14 15  1  0  0  0  0
 15 16  2  0  0  0  0
 16 21  1  0  0  0  0
 16 17  1  0  0  0  0
 17 18  2  0  0  0  0
 18 19  1  0  0  0  0
 19 20  2  0  0  0  0
 20 21  1  0  0  0  0
 21 22  2  0  0  0  0
 22 23  1  0  0  0  0
M  END
>  <COMPND>
    UNNAMED

>  <AUTHOR>
    GENERATED BY OPEN BABEL 2.4.90

>  <MASTER>
        0    0    0    0    0    0    0    0   23    0   23    0

