__3w7q_A_rec_3w7q_w7q_lig_min.pdb
 OpenBabel10201915143D

 29 31  0  0  0  0  0  0  0  0999 V2000
    4.4190  -14.2180  -10.8250 C   0  0  0  0  0  0  0  0  0  0  0  0
    3.2360  -13.6650  -11.3730 C   0  0  0  0  0  0  0  0  0  0  0  0
    4.3800  -15.5600  -10.4030 C   0  0  0  0  0  0  0  0  0  0  0  0
    3.1580  -16.2490  -10.4540 C   0  0  0  0  0  0  0  0  0  0  0  0
    2.0530  -15.6860  -11.0180 C   0  0  0  0  0  0  0  0  0  0  0  0
    2.1080  -14.4010  -11.4770 C   0  0  0  0  0  0  0  0  0  0  0  0
    0.8650  -13.9910  -12.0430 C   0  0  0  0  0  0  0  0  0  0  0  0
    0.0170  -15.2460  -12.1240 C   0  0  0  0  0  0  0  0  0  0  0  0
    0.7960  -16.1940  -11.3030 N   0  0  0  0  0  0  0  0  0  0  0  0
    0.2650  -17.3870  -11.0140 C   0  0  0  0  0  0  0  0  0  0  0  0
   -0.8970  -17.6930  -11.3640 O   0  0  0  0  0  0  0  0  0  0  0  0
    5.6000  -13.4380  -10.8250 C   0  0  0  0  0  0  0  0  0  0  0  0
    6.6280  -13.8600  -11.9400 C   0  0  0  0  0  0  0  0  0  0  0  0
    5.8920  -13.6470  -14.2320 C   0  0  0  0  0  0  0  0  0  0  0  0
    5.6500  -12.8710  -15.3890 N   0  0  0  0  0  0  0  0  0  0  0  0
    6.0890  -11.5440  -15.4520 C   0  0  0  0  0  0  0  0  0  0  0  0
    5.8240  -10.8690  -16.4240 O   0  0  0  0  0  0  0  0  0  0  0  0
    6.6910  -11.0140  -14.3410 N   0  0  0  0  0  0  0  0  0  0  0  0
    6.8850  -11.7300  -13.1620 C   0  0  0  0  0  0  0  0  0  0  0  0
    7.4010  -11.1550  -12.1760 O   0  0  0  0  0  0  0  0  0  0  0  0
    6.4800  -13.1170  -13.1100 C   0  0  0  0  0  0  0  0  0  0  0  0
    4.1060  -15.0520  -14.4450 O   0  0  0  0  0  0  0  0  0  0  0  0
    5.3530  -14.9780  -14.3660 C   0  0  0  0  0  0  0  0  0  0  0  0
    6.1170  -15.9820  -14.4540 O   0  0  0  0  0  0  0  0  0  0  0  0
    0.9940  -18.1220  -10.1640 O   0  0  0  0  0  0  0  0  0  0  0  0
    0.6240  -18.4700   -8.8050 C   0  0  0  0  0  0  0  0  0  0  0  0
    1.9600  -18.6950   -8.0880 C   0  0  0  0  0  0  0  0  0  0  0  0
   -0.0550  -17.2520   -8.2620 C   0  0  0  0  0  0  0  0  0  0  0  0
   -0.2700  -19.7430   -8.7690 C   0  0  0  0  0  0  0  0  0  0  0  0
  1  2  2  0  0  0  0
  1 12  1  0  0  0  0
  1  3  1  0  0  0  0
  2  6  1  0  0  0  0
  3  4  2  0  0  0  0
  4  5  1  0  0  0  0
  5  6  2  0  0  0  0
  5  9  1  0  0  0  0
  6  7  1  0  0  0  0
  7  8  1  0  0  0  0
  8  9  1  0  0  0  0
  9 10  1  0  0  0  0
 10 11  2  0  0  0  0
 10 25  1  0  0  0  0
 12 13  1  0  0  0  0
 13 21  1  0  0  0  0
 14 15  1  0  0  0  0
 14 23  1  0  0  0  0
 14 21  2  0  0  0  0
 15 16  2  0  0  0  0
 16 17  2  0  0  0  0
 16 18  1  0  0  0  0
 18 19  1  0  0  0  0
 19 21  1  0  0  0  0
 19 20  2  0  0  0  0
 22 23  2  0  0  0  0
 23 24  1  0  0  0  0
 25 26  1  0  0  0  0
 26 29  1  0  0  0  0
 26 28  1  0  0  0  0
 26 27  1  0  0  0  0
M  END
>  <COMPND>
    UNNAMED

>  <AUTHOR>
    GENERATED BY OPEN BABEL 2.4.90

>  <MASTER>
        0    0    0    0    0    0    0    0   29    0   29    0

