__3w7q_A_rec_3w85_w85_lig_min.pdb
 OpenBabel10201913153D

 23 24  0  0  0  0  0  0  0  0999 V2000
    5.8780  -13.6370  -14.4310 C   0  0  0  0  0  0  0  0  0  0  0  0
    5.6770  -12.7700  -15.5540 N   0  0  0  0  0  0  0  0  0  0  0  0
    6.2400  -11.5000  -15.5900 C   0  0  0  0  0  0  0  0  0  0  0  0
    6.0190  -10.7720  -16.5520 O   0  0  0  0  0  0  0  0  0  0  0  0
    7.0230  -11.0470  -14.5340 N   0  0  0  0  0  0  0  0  0  0  0  0
    7.2430  -11.8900  -13.4430 C   0  0  0  0  0  0  0  0  0  0  0  0
    7.9470  -11.4720  -12.5240 O   0  0  0  0  0  0  0  0  0  0  0  0
    6.6570  -13.1810  -13.3620 C   0  0  0  0  0  0  0  0  0  0  0  0
    3.9050  -14.9100  -14.4800 O   0  0  0  0  0  0  0  0  0  0  0  0
    5.2070  -14.9290  -14.4760 C   0  0  0  0  0  0  0  0  0  0  0  0
    5.8900  -16.0290  -14.5380 O   0  0  0  0  0  0  0  0  0  0  0  0
    6.9100  -13.9980  -12.1930 C   0  0  0  0  0  0  0  0  0  0  0  0
    6.1010  -13.5290  -10.9250 C   0  0  0  0  0  0  0  0  0  0  0  0
    4.7390  -13.8450  -11.0190 C   0  0  0  0  0  0  0  0  0  0  0  0
    3.7490  -12.8930  -11.2780 C   0  0  0  0  0  0  0  0  0  0  0  0
    4.3220  -15.1910  -10.9150 C   0  0  0  0  0  0  0  0  0  0  0  0
    2.9720  -15.5810  -11.0230 C   0  0  0  0  0  0  0  0  0  0  0  0
    2.0020  -14.6010  -11.2420 C   0  0  0  0  0  0  0  0  0  0  0  0
    2.3670  -13.2570  -11.3760 C   0  0  0  0  0  0  0  0  0  0  0  0
    1.3450  -12.2840  -11.6210 C   0  0  0  0  0  0  0  0  0  0  0  0
    0.1650  -12.6150  -11.8140 O   0  0  0  0  0  0  0  0  0  0  0  0
    1.7400  -10.9650  -11.6390 O   0  0  0  0  0  0  0  0  0  0  0  0
    0.6540  -10.0060  -11.9240 C   0  0  0  0  0  0  0  0  0  0  0  0
  1  2  1  0  0  0  0
  1 10  1  0  0  0  0
  1  8  2  0  0  0  0
  2  3  2  0  0  0  0
  3  4  2  0  0  0  0
  3  5  1  0  0  0  0
  5  6  1  0  0  0  0
  6  8  1  0  0  0  0
  6  7  2  0  0  0  0
  8 12  1  0  0  0  0
  9 10  2  0  0  0  0
 10 11  1  0  0  0  0
 12 13  1  0  0  0  0
 13 14  1  0  0  0  0
 14 16  2  0  0  0  0
 14 15  1  0  0  0  0
 15 19  2  0  0  0  0
 16 17  1  0  0  0  0
 17 18  2  0  0  0  0
 18 19  1  0  0  0  0
 19 20  1  0  0  0  0
 20 21  2  0  0  0  0
 20 22  1  0  0  0  0
 22 23  1  0  0  0  0
M  END
>  <COMPND>
    UNNAMED

>  <AUTHOR>
    GENERATED BY OPEN BABEL 2.4.90

>  <MASTER>
        0    0    0    0    0    0    0    0   23    0   23    0

