__3w7q_A_rec_3w2m_zro_lig_min.pdb
 OpenBabel10201913473D

 23 24  0  0  0  0  0  0  0  0999 V2000
    6.0190  -13.6290  -14.4140 C   0  0  0  0  0  0  0  0  0  0  0  0
    5.7760  -12.8220  -15.5120 N   0  0  0  0  0  0  0  0  0  0  0  0
    6.2030  -11.5220  -15.5810 C   0  0  0  0  0  0  0  0  0  0  0  0
    5.8790  -10.7620  -16.5460 O   0  0  0  0  0  0  0  0  0  0  0  0
    6.9070  -11.0100  -14.5390 N   0  0  0  0  0  0  0  0  0  0  0  0
    7.1660  -11.7710  -13.3830 C   0  0  0  0  0  0  0  0  0  0  0  0
    7.8720  -11.2760  -12.4870 O   0  0  0  0  0  0  0  0  0  0  0  0
    6.6550  -13.1010  -13.3450 C   0  0  0  0  0  0  0  0  0  0  0  0
    6.1460  -16.0130  -14.4710 O   0  0  0  0  0  0  0  0  0  0  0  0
    5.4050  -15.0370  -14.4970 C   0  0  0  0  0  0  0  0  0  0  0  0
    4.1990  -15.0200  -14.4750 O   0  0  0  0  0  0  0  0  0  0  0  0
    6.9650  -13.8600  -12.1950 C   0  0  0  0  0  0  0  0  0  0  0  0
    6.0990  -13.3900  -10.9380 C   0  0  0  0  0  0  0  0  0  0  0  0
    4.8350  -13.9810  -10.9820 C   0  0  0  0  0  0  0  0  0  0  0  0
    4.6330  -15.3430  -10.8550 C   0  0  0  0  0  0  0  0  0  0  0  0
    3.3520  -15.9420  -10.9520 C   0  0  0  0  0  0  0  0  0  0  0  0
    2.2200  -15.1920  -11.3670 C   0  0  0  0  0  0  0  0  0  0  0  0
    2.4280  -13.8040  -11.5520 C   0  0  0  0  0  0  0  0  0  0  0  0
    3.6970  -13.2110  -11.3150 C   0  0  0  0  0  0  0  0  0  0  0  0
    0.8880  -15.7900  -11.6290 C   0  0  0  0  0  0  0  0  0  0  0  0
    0.7970  -17.0890  -11.3330 F   0  0  0  0  0  0  0  0  0  0  0  0
   -0.1140  -15.0720  -11.0270 F   0  0  0  0  0  0  0  0  0  0  0  0
    0.7270  -15.8960  -13.1500 F   0  0  0  0  0  0  0  0  0  0  0  0
  1  2  1  0  0  0  0
  1 10  1  0  0  0  0
  1  8  2  0  0  0  0
  2  3  2  0  0  0  0
  3  4  2  0  0  0  0
  3  5  1  0  0  0  0
  5  6  1  0  0  0  0
  6  8  1  0  0  0  0
  6  7  2  0  0  0  0
  8 12  1  0  0  0  0
  9 10  2  0  0  0  0
 10 11  1  0  0  0  0
 12 13  1  0  0  0  0
 13 14  1  0  0  0  0
 14 19  2  0  0  0  0
 14 15  1  0  0  0  0
 15 16  2  0  0  0  0
 16 17  1  0  0  0  0
 17 18  2  0  0  0  0
 17 20  1  0  0  0  0
 18 19  1  0  0  0  0
 20 23  1  0  0  0  0
 20 22  1  0  0  0  0
 20 21  1  0  0  0  0
M  END
>  <COMPND>
    UNNAMED

>  <AUTHOR>
    GENERATED BY OPEN BABEL 2.4.90

>  <MASTER>
        0    0    0    0    0    0    0    0   23    0   23    0

