__3w7q_A_rec_3w7d_w7d_lig_min.pdb
 OpenBabel10201914043D

 25 27  0  0  0  0  0  0  0  0999 V2000
    6.7220  -13.8880  -11.9900 C   0  0  0  0  0  0  0  0  0  0  0  0
    5.9530  -13.6400  -14.3470 C   0  0  0  0  0  0  0  0  0  0  0  0
    5.6580  -12.8320  -15.4860 N   0  0  0  0  0  0  0  0  0  0  0  0
    6.0450  -11.5410  -15.5360 C   0  0  0  0  0  0  0  0  0  0  0  0
    5.8210  -10.8160  -16.5190 O   0  0  0  0  0  0  0  0  0  0  0  0
    6.6810  -11.0250  -14.4450 N   0  0  0  0  0  0  0  0  0  0  0  0
    6.9930  -11.7140  -13.2540 C   0  0  0  0  0  0  0  0  0  0  0  0
    7.6310  -11.2180  -12.3170 O   0  0  0  0  0  0  0  0  0  0  0  0
    6.6220  -13.0770  -13.2340 C   0  0  0  0  0  0  0  0  0  0  0  0
    6.1020  -15.9740  -14.5330 O   0  0  0  0  0  0  0  0  0  0  0  0
    5.3030  -15.0150  -14.4030 C   0  0  0  0  0  0  0  0  0  0  0  0
    4.0770  -15.0200  -14.4240 O   0  0  0  0  0  0  0  0  0  0  0  0
    5.8970  -13.3080  -10.7960 C   0  0  0  0  0  0  0  0  0  0  0  0
    4.5440  -13.5830  -11.0100 C   0  0  0  0  0  0  0  0  0  0  0  0
    3.9060  -14.8470  -10.7610 C   0  0  0  0  0  0  0  0  0  0  0  0
    2.4850  -15.0660  -11.0590 C   0  0  0  0  0  0  0  0  0  0  0  0
    3.7150  -12.5380  -11.4960 C   0  0  0  0  0  0  0  0  0  0  0  0
    2.3550  -12.7980  -11.8330 C   0  0  0  0  0  0  0  0  0  0  0  0
    1.7440  -14.0070  -11.5980 C   0  0  0  0  0  0  0  0  0  0  0  0
    0.3350  -14.1660  -11.9290 C   0  0  0  0  0  0  0  0  0  0  0  0
   -0.1660  -15.4180  -11.6530 C   0  0  0  0  0  0  0  0  0  0  0  0
    0.5340  -16.4930  -11.1170 C   0  0  0  0  0  0  0  0  0  0  0  0
    1.9150  -16.3090  -10.7550 C   0  0  0  0  0  0  0  0  0  0  0  0
    2.7410  -17.2230  -10.2770 O   0  0  0  0  0  0  0  0  0  0  0  0
    2.1610  -18.1160   -9.2700 C   0  0  0  0  0  0  0  0  0  0  0  0
  1  9  1  0  0  0  0
  1 13  1  0  0  0  0
  2  3  1  0  0  0  0
  2 11  1  0  0  0  0
  2  9  2  0  0  0  0
  3  4  2  0  0  0  0
  4  5  2  0  0  0  0
  4  6  1  0  0  0  0
  6  7  1  0  0  0  0
  7  9  1  0  0  0  0
  7  8  2  0  0  0  0
 10 11  2  0  0  0  0
 11 12  1  0  0  0  0
 13 14  1  0  0  0  0
 14 17  2  0  0  0  0
 14 15  1  0  0  0  0
 15 16  2  0  0  0  0
 16 19  1  0  0  0  0
 16 23  1  0  0  0  0
 17 18  1  0  0  0  0
 18 19  2  0  0  0  0
 19 20  1  0  0  0  0
 20 21  2  0  0  0  0
 21 22  1  0  0  0  0
 22 23  2  0  0  0  0
 23 24  1  0  0  0  0
 24 25  1  0  0  0  0
M  END
>  <COMPND>
    UNNAMED

>  <AUTHOR>
    GENERATED BY OPEN BABEL 2.4.90

>  <MASTER>
        0    0    0    0    0    0    0    0   25    0   25    0

