__3w7q_A_rec_2e68_dor_lig_min.pdb
 OpenBabel10201914383D

 11 11  0  0  1  0  0  0  0  0999 V2000
    4.0770  -10.8120  -15.1430 O   0  0  0  0  0  0  0  0  0  0  0  0
    4.9160  -11.5080  -14.5640 C   0  0  0  0  0  0  0  0  0  0  0  0
    4.9840  -12.8250  -14.7860 N   0  0  0  0  0  0  0  0  0  0  0  0
    5.7620  -10.9440  -13.6880 N   0  0  0  0  0  0  0  0  0  0  0  0
    6.6380  -11.6090  -12.9250 C   0  0  0  0  0  0  0  0  0  0  0  0
    7.4110  -11.0480  -12.1610 O   0  0  0  0  0  0  0  0  0  0  0  0
    6.6650  -13.1090  -13.0110 C   0  0  0  0  0  0  0  0  0  0  0  0
    6.1140  -13.6360  -14.3310 C   0  0  1  0  0  0  0  0  0  0  0  0
    5.7890  -15.0820  -14.1200 C   0  0  0  0  0  0  0  0  0  0  0  0
    4.6020  -15.4630  -14.2520 O   0  0  0  0  0  0  0  0  0  0  0  0
    6.7470  -15.8320  -13.8180 O   0  0  0  0  0  0  0  0  0  0  0  0
  1  2  2  0  0  0  0
  2  3  2  0  0  0  0
  2  4  1  0  0  0  0
  3  8  1  0  0  0  0
  4  5  1  0  0  0  0
  5  7  1  0  0  0  0
  5  6  2  0  0  0  0
  7  8  1  0  0  0  0
  8  9  1  1  0  0  0
  9 11  2  0  0  0  0
  9 10  1  0  0  0  0
M  END
>  <COMPND>
    UNNAMED

>  <AUTHOR>
    GENERATED BY OPEN BABEL 2.4.90

>  <MASTER>
        0    0    0    0    0    0    0    0   11    0   11    0

