__3w83_B_rec_2e6a_oro_lig_min.pdb
 OpenBabel10201914393D

 11 11  0  0  0  0  0  0  0  0999 V2000
    5.0970  -12.6430  -15.1570 N   0  0  0  0  0  0  0  0  0  0  0  0
    5.6210  -11.4070  -15.2140 C   0  0  0  0  0  0  0  0  0  0  0  0
    5.5610  -10.7300  -16.2770 O   0  0  0  0  0  0  0  0  0  0  0  0
    6.2350  -10.8730  -14.1230 N   0  0  0  0  0  0  0  0  0  0  0  0
    6.2970  -11.5530  -12.9650 C   0  0  0  0  0  0  0  0  0  0  0  0
    6.8450  -11.0320  -11.9840 O   0  0  0  0  0  0  0  0  0  0  0  0
    5.7360  -12.8330  -12.8550 C   0  0  0  0  0  0  0  0  0  0  0  0
    5.1680  -13.3640  -14.0180 C   0  0  0  0  0  0  0  0  0  0  0  0
    4.4660  -14.6730  -13.9470 C   0  0  0  0  0  0  0  0  0  0  0  0
    4.5190  -15.4490  -12.9700 O   0  0  0  0  0  0  0  0  0  0  0  0
    3.7270  -14.8470  -14.9410 O   0  0  0  0  0  0  0  0  0  0  0  0
  1  2  2  0  0  0  0
  1  8  1  0  0  0  0
  2  3  2  0  0  0  0
  2  4  1  0  0  0  0
  4  5  1  0  0  0  0
  5  7  1  0  0  0  0
  5  6  2  0  0  0  0
  7  8  2  0  0  0  0
  8  9  1  0  0  0  0
  9 11  2  0  0  0  0
  9 10  1  0  0  0  0
M  END
>  <COMPND>
    UNNAMED

>  <AUTHOR>
    GENERATED BY OPEN BABEL 2.4.90

>  <MASTER>
        0    0    0    0    0    0    0    0   11    0   11    0

