__3w83_B_rec_3w7c_w7c_lig_min.pdb
 OpenBabel10201911553D

 25 27  0  0  0  0  0  0  0  0999 V2000
    6.8250  -13.5910  -11.7470 C   0  0  0  0  0  0  0  0  0  0  0  0
    5.9440  -13.5380  -13.9620 C   0  0  0  0  0  0  0  0  0  0  0  0
    5.4520  -12.8280  -15.1090 N   0  0  0  0  0  0  0  0  0  0  0  0
    5.5860  -11.4450  -15.1310 C   0  0  0  0  0  0  0  0  0  0  0  0
    5.1600  -10.8040  -16.0890 O   0  0  0  0  0  0  0  0  0  0  0  0
    6.1330  -10.7980  -14.0550 N   0  0  0  0  0  0  0  0  0  0  0  0
    6.5560  -11.4750  -12.8700 C   0  0  0  0  0  0  0  0  0  0  0  0
    7.0510  -10.7910  -11.9770 O   0  0  0  0  0  0  0  0  0  0  0  0
    6.4640  -12.8550  -12.8410 C   0  0  0  0  0  0  0  0  0  0  0  0
    6.5330  -15.7750  -14.4890 O   0  0  0  0  0  0  0  0  0  0  0  0
    5.7050  -14.9560  -14.0320 C   0  0  0  0  0  0  0  0  0  0  0  0
    4.5730  -15.3240  -13.7100 O   0  0  0  0  0  0  0  0  0  0  0  0
    6.0180  -13.1770  -10.4630 C   0  0  0  0  0  0  0  0  0  0  0  0
    4.8080  -13.9570  -10.4540 C   0  0  0  0  0  0  0  0  0  0  0  0
    4.6910  -15.2730  -10.0190 C   0  0  0  0  0  0  0  0  0  0  0  0
    3.6540  -13.3460  -10.9590 C   0  0  0  0  0  0  0  0  0  0  0  0
    2.4490  -13.9930  -11.0480 C   0  0  0  0  0  0  0  0  0  0  0  0
    2.3300  -15.3090  -10.6560 C   0  0  0  0  0  0  0  0  0  0  0  0
    3.4380  -15.9400  -10.0590 C   0  0  0  0  0  0  0  0  0  0  0  0
    3.2650  -17.2650   -9.6530 C   0  0  0  0  0  0  0  0  0  0  0  0
    2.0390  -17.9130   -9.8160 C   0  0  0  0  0  0  0  0  0  0  0  0
    0.9230  -17.2530  -10.3330 C   0  0  0  0  0  0  0  0  0  0  0  0
    1.0750  -15.9400  -10.7530 C   0  0  0  0  0  0  0  0  0  0  0  0
    0.0660  -15.1210  -11.2570 O   0  0  0  0  0  0  0  0  0  0  0  0
   -1.0630  -15.7300  -11.8050 C   0  0  0  0  0  0  0  0  0  0  0  0
  1  9  1  0  0  0  0
  1 13  1  0  0  0  0
  2  3  1  0  0  0  0
  2 11  1  0  0  0  0
  2  9  2  0  0  0  0
  3  4  2  0  0  0  0
  4  5  2  0  0  0  0
  4  6  1  0  0  0  0
  6  7  1  0  0  0  0
  7  9  1  0  0  0  0
  7  8  2  0  0  0  0
 10 11  2  0  0  0  0
 11 12  1  0  0  0  0
 13 14  1  0  0  0  0
 14 16  2  0  0  0  0
 14 15  1  0  0  0  0
 15 19  2  0  0  0  0
 16 17  1  0  0  0  0
 17 18  2  0  0  0  0
 18 23  1  0  0  0  0
 18 19  1  0  0  0  0
 19 20  1  0  0  0  0
 20 21  2  0  0  0  0
 21 22  1  0  0  0  0
 22 23  2  0  0  0  0
 23 24  1  0  0  0  0
 24 25  1  0  0  0  0
M  END
>  <COMPND>
    UNNAMED

>  <AUTHOR>
    GENERATED BY OPEN BABEL 2.4.90

>  <MASTER>
        0    0    0    0    0    0    0    0   25    0   25    0

