__3w83_B_rec_3w2k_kro_lig_docked.pdb
 OpenBabel10201917033D

 21 22  0  0  0  0  0  0  0  0999 V2000
    5.8910  -13.5470  -14.0330 C   0  0  0  0  0  0  0  0  0  0  0  0
    5.5970  -12.7440  -15.2030 N   0  0  0  0  0  0  0  0  0  0  0  0
    5.7830  -11.3660  -15.1600 C   0  0  0  0  0  0  0  0  0  0  0  0
    5.5660  -10.6730  -16.1640 O   0  0  0  0  0  0  0  0  0  0  0  0
    6.3160  -10.8390  -13.9580 N   0  0  0  0  0  0  0  0  0  0  0  0
    6.5650  -11.6130  -12.7970 C   0  0  0  0  0  0  0  0  0  0  0  0
    6.9780  -11.0170  -11.7580 O   0  0  0  0  0  0  0  0  0  0  0  0
    6.2580  -12.9570  -12.8700 C   0  0  0  0  0  0  0  0  0  0  0  0
    4.3570  -15.4050  -13.8620 O   0  0  0  0  0  0  0  0  0  0  0  0
    5.4970  -15.0310  -14.2130 C   0  0  0  0  0  0  0  0  0  0  0  0
    6.3920  -15.7690  -14.6240 O   0  0  0  0  0  0  0  0  0  0  0  0
    6.4650  -13.7760  -11.7350 C   0  0  0  0  0  0  0  0  0  0  0  0
    5.5390  -13.2860  -10.5450 C   0  0  0  0  0  0  0  0  0  0  0  0
    4.4140  -13.8640  -10.6530 C   0  0  0  0  0  0  0  0  0  0  0  0
    4.4450  -15.1630  -10.1630 C   0  0  0  0  0  0  0  0  0  0  0  0
    3.3820  -15.9730  -10.2850 C   0  0  0  0  0  0  0  0  0  0  0  0
    3.4420  -17.2920   -9.7050 C   0  0  0  0  0  0  0  0  0  0  0  0
    2.2100  -15.4420  -10.8820 C   0  0  0  0  0  0  0  0  0  0  0  0
    1.1310  -16.2490  -10.9660 F   0  0  0  0  0  0  0  0  0  0  0  0
    2.1230  -14.1360  -11.3990 C   0  0  0  0  0  0  0  0  0  0  0  0
    3.2720  -13.3140  -11.2780 C   0  0  0  0  0  0  0  0  0  0  0  0
  1  2  1  0  0  0  0
  1 10  1  0  0  0  0
  1  8  2  0  0  0  0
  2  3  2  0  0  0  0
  3  4  2  0  0  0  0
  3  5  1  0  0  0  0
  5  6  1  0  0  0  0
  6  8  1  0  0  0  0
  6  7  2  0  0  0  0
  8 12  1  0  0  0  0
  9 10  2  0  0  0  0
 10 11  1  0  0  0  0
 12 13  1  0  0  0  0
 13 14  1  0  0  0  0
 14 21  2  0  0  0  0
 14 15  1  0  0  0  0
 15 16  2  0  0  0  0
 16 18  1  0  0  0  0
 16 17  1  0  0  0  0
 18 20  2  0  0  0  0
 18 19  1  0  0  0  0
 20 21  1  0  0  0  0
M  END
>  <MODEL>
       9

>  <COMPND>
    UNNAMED

>  <AUTHOR>
    GENERATED BY OPEN BABEL 2.4.90

>  <MASTER>
        0    0    0    0    0    0    0    0   21    0   21    0

