__3w83_B_rec_3w1a_fot_lig_min.pdb
 OpenBabel10201914143D

 12 12  0  0  0  0  0  0  0  0999 V2000
    5.0290  -11.4700  -14.6400 C   0  0  0  0  0  0  0  0  0  0  0  0
    6.4880  -11.4550  -12.7810 C   0  0  0  0  0  0  0  0  0  0  0  0
    6.5570  -12.8550  -12.8910 C   0  0  0  0  0  0  0  0  0  0  0  0
    4.3260  -10.7700  -15.4520 O   0  0  0  0  0  0  0  0  0  0  0  0
    5.1300  -12.8020  -14.7650 N   0  0  0  0  0  0  0  0  0  0  0  0
    5.6810  -10.8040  -13.6180 N   0  0  0  0  0  0  0  0  0  0  0  0
    7.0520  -10.8340  -11.8710 O   0  0  0  0  0  0  0  0  0  0  0  0
    7.3420  -13.5020  -12.0850 F   0  0  0  0  0  0  0  0  0  0  0  0
    5.8700  -13.5250  -13.9200 C   0  0  0  0  0  0  0  0  0  0  0  0
    5.7740  -14.9970  -13.9200 C   0  0  0  0  0  0  0  0  0  0  0  0
    4.6190  -15.3700  -13.5280 O   0  0  0  0  0  0  0  0  0  0  0  0
    6.7280  -15.7700  -14.1130 O   0  0  0  0  0  0  0  0  0  0  0  0
  1  4  2  0  0  0  0
  1  5  2  0  0  0  0
  1  6  1  0  0  0  0
  2  6  1  0  0  0  0
  2  3  1  0  0  0  0
  2  7  2  0  0  0  0
  3  9  2  0  0  0  0
  3  8  1  0  0  0  0
  5  9  1  0  0  0  0
  9 10  1  0  0  0  0
 10 11  2  0  0  0  0
 10 12  1  0  0  0  0
M  END
>  <COMPND>
    UNNAMED

>  <AUTHOR>
    GENERATED BY OPEN BABEL 2.4.90

>  <MASTER>
        0    0    0    0    0    0    0    0   12    0   12    0

