__3w83_B_rec_3w74_w74_lig_min.pdb
 OpenBabel10201913043D

 24 25  0  0  0  0  0  0  0  0999 V2000
    5.9520  -13.5850  -14.2210 C   0  0  0  0  0  0  0  0  0  0  0  0
    5.5060  -12.8110  -15.2820 N   0  0  0  0  0  0  0  0  0  0  0  0
    5.7100  -11.4340  -15.2660 C   0  0  0  0  0  0  0  0  0  0  0  0
    5.2540  -10.7530  -16.1600 O   0  0  0  0  0  0  0  0  0  0  0  0
    6.3000  -10.8630  -14.1900 N   0  0  0  0  0  0  0  0  0  0  0  0
    6.7440  -11.5970  -13.0910 C   0  0  0  0  0  0  0  0  0  0  0  0
    7.2360  -10.9580  -12.1470 O   0  0  0  0  0  0  0  0  0  0  0  0
    6.5410  -13.0090  -13.0840 C   0  0  0  0  0  0  0  0  0  0  0  0
    6.4050  -15.8260  -14.7130 O   0  0  0  0  0  0  0  0  0  0  0  0
    5.6220  -14.9530  -14.3460 C   0  0  0  0  0  0  0  0  0  0  0  0
    4.5230  -15.3020  -13.9090 O   0  0  0  0  0  0  0  0  0  0  0  0
    6.9580  -13.7700  -11.9750 C   0  0  0  0  0  0  0  0  0  0  0  0
    6.1780  -13.2770  -10.6670 C   0  0  0  0  0  0  0  0  0  0  0  0
    4.8610  -13.7610  -10.6640 C   0  0  0  0  0  0  0  0  0  0  0  0
    3.8120  -12.9040  -10.9440 C   0  0  0  0  0  0  0  0  0  0  0  0
    2.4700  -13.3460  -11.0010 C   0  0  0  0  0  0  0  0  0  0  0  0
    2.1570  -14.6910  -10.7410 C   0  0  0  0  0  0  0  0  0  0  0  0
    3.2430  -15.5500  -10.4830 C   0  0  0  0  0  0  0  0  0  0  0  0
    4.5680  -15.1050  -10.4280 C   0  0  0  0  0  0  0  0  0  0  0  0
    0.8060  -15.1300  -10.7800 O   0  0  0  0  0  0  0  0  0  0  0  0
    0.4300  -15.7170  -12.0360 C   0  0  0  0  0  0  0  0  0  0  0  0
    0.3540  -16.9820  -11.8970 F   0  0  0  0  0  0  0  0  0  0  0  0
    1.3810  -15.3860  -13.0440 F   0  0  0  0  0  0  0  0  0  0  0  0
   -0.7360  -15.2600  -12.3650 F   0  0  0  0  0  0  0  0  0  0  0  0
  1  2  1  0  0  0  0
  1 10  1  0  0  0  0
  1  8  2  0  0  0  0
  2  3  2  0  0  0  0
  3  4  2  0  0  0  0
  3  5  1  0  0  0  0
  5  6  1  0  0  0  0
  6  8  1  0  0  0  0
  6  7  2  0  0  0  0
  8 12  1  0  0  0  0
  9 10  2  0  0  0  0
 10 11  1  0  0  0  0
 12 13  1  0  0  0  0
 13 14  1  0  0  0  0
 14 15  2  0  0  0  0
 14 19  1  0  0  0  0
 15 16  1  0  0  0  0
 16 17  2  0  0  0  0
 17 20  1  0  0  0  0
 17 18  1  0  0  0  0
 18 19  2  0  0  0  0
 20 21  1  0  0  0  0
 21 23  1  0  0  0  0
 21 24  1  0  0  0  0
 21 22  1  0  0  0  0
M  END
>  <COMPND>
    UNNAMED

>  <AUTHOR>
    GENERATED BY OPEN BABEL 2.4.90

>  <MASTER>
        0    0    0    0    0    0    0    0   24    0   24    0

