__3w84_A_rec_3w86_w86_lig_min.pdb
 OpenBabel10201912523D

 25 26  0  0  0  0  0  0  0  0999 V2000
    7.5320  -14.1010  -12.4690 C   0  0  0  0  0  0  0  0  0  0  0  0
    6.1300  -13.7630  -14.5470 C   0  0  0  0  0  0  0  0  0  0  0  0
    5.5480  -12.8990  -15.4880 N   0  0  0  0  0  0  0  0  0  0  0  0
    5.8010  -11.5820  -15.4880 C   0  0  0  0  0  0  0  0  0  0  0  0
    5.3380  -10.8060  -16.3710 O   0  0  0  0  0  0  0  0  0  0  0  0
    6.6320  -11.0570  -14.5190 N   0  0  0  0  0  0  0  0  0  0  0  0
    7.2340  -11.8470  -13.5510 C   0  0  0  0  0  0  0  0  0  0  0  0
    7.9320  -11.3020  -12.6970 O   0  0  0  0  0  0  0  0  0  0  0  0
    6.9250  -13.2540  -13.5520 C   0  0  0  0  0  0  0  0  0  0  0  0
    4.4470  -15.3490  -14.2280 O   0  0  0  0  0  0  0  0  0  0  0  0
    5.6270  -15.1060  -14.6250 C   0  0  0  0  0  0  0  0  0  0  0  0
    6.4070  -16.0040  -14.9770 O   0  0  0  0  0  0  0  0  0  0  0  0
    6.8830  -13.7700  -11.0820 C   0  0  0  0  0  0  0  0  0  0  0  0
    5.4160  -14.2110  -11.0840 C   0  0  0  0  0  0  0  0  0  0  0  0
    5.0080  -15.0140   -9.7650 C   0  0  0  0  0  0  0  0  0  0  0  0
    3.9290  -15.8630   -9.9860 C   0  0  0  0  0  0  0  0  0  0  0  0
    3.8100  -17.0960   -9.3080 C   0  0  0  0  0  0  0  0  0  0  0  0
    2.7260  -17.9180   -9.5290 C   0  0  0  0  0  0  0  0  0  0  0  0
    2.9530  -15.4800  -10.8300 C   0  0  0  0  0  0  0  0  0  0  0  0
    1.8470  -16.2970  -11.0610 C   0  0  0  0  0  0  0  0  0  0  0  0
    1.7060  -17.5390  -10.4280 C   0  0  0  0  0  0  0  0  0  0  0  0
    0.6130  -18.4040  -10.6470 C   0  0  0  0  0  0  0  0  0  0  0  0
    0.7680  -19.5830  -10.2930 O   0  0  0  0  0  0  0  0  0  0  0  0
   -0.4970  -17.9820  -11.4280 O   0  0  0  0  0  0  0  0  0  0  0  0
   -1.8290  -18.2040  -11.0750 C   0  0  0  0  0  0  0  0  0  0  0  0
  1  9  1  0  0  0  0
  1 13  1  0  0  0  0
  2  3  1  0  0  0  0
  2 11  1  0  0  0  0
  2  9  2  0  0  0  0
  3  4  2  0  0  0  0
  4  5  2  0  0  0  0
  4  6  1  0  0  0  0
  6  7  1  0  0  0  0
  7  9  1  0  0  0  0
  7  8  2  0  0  0  0
 10 11  2  0  0  0  0
 11 12  1  0  0  0  0
 13 14  1  0  0  0  0
 14 15  1  0  0  0  0
 15 16  1  0  0  0  0
 16 19  2  0  0  0  0
 16 17  1  0  0  0  0
 17 18  2  0  0  0  0
 18 21  1  0  0  0  0
 19 20  1  0  0  0  0
 20 21  2  0  0  0  0
 21 22  1  0  0  0  0
 22 24  1  0  0  0  0
 22 23  2  0  0  0  0
 24 25  1  0  0  0  0
M  END
>  <COMPND>
    UNNAMED

>  <AUTHOR>
    GENERATED BY OPEN BABEL 2.4.90

>  <MASTER>
        0    0    0    0    0    0    0    0   25    0   25    0

