__3w84_A_rec_2e6d_fum_lig_min.pdb
 OpenBabel10201912123D

  8  7  0  0  0  0  0  0  0  0999 V2000
    6.0060  -13.3300  -13.7810 C   0  0  0  0  0  0  0  0  0  0  0  0
    4.8480  -13.2970  -13.1280 C   0  0  0  0  0  0  0  0  0  0  0  0
    7.8080  -13.9010  -12.3200 O   0  0  0  0  0  0  0  0  0  0  0  0
    7.0390  -14.2450  -13.2310 C   0  0  0  0  0  0  0  0  0  0  0  0
    7.1020  -15.3850  -13.7420 O   0  0  0  0  0  0  0  0  0  0  0  0
    3.7020  -12.4790  -13.5780 C   0  0  0  0  0  0  0  0  0  0  0  0
    3.6230  -11.3500  -13.0940 O   0  0  0  0  0  0  0  0  0  0  0  0
    2.8200  -12.9370  -14.3590 O   0  0  0  0  0  0  0  0  0  0  0  0
  1  4  1  0  0  0  0
  1  2  2  0  0  0  0
  2  6  1  0  0  0  0
  3  4  2  0  0  0  0
  4  5  1  0  0  0  0
  6  8  2  0  0  0  0
  6  7  1  0  0  0  0
M  END
>  <COMPND>
    UNNAMED

>  <AUTHOR>
    GENERATED BY OPEN BABEL 2.4.90

>  <MASTER>
        0    0    0    0    0    0    0    0    8    0    8    0

