__3w85_B_rec_3w1l_hro_lig_min.pdb
 OpenBabel10201912453D

 12 12  0  0  1  0  0  0  0  0999 V2000
    5.3770  -13.3620  -13.8960 C   0  0  0  0  0  0  0  0  0  0  0  0
    6.1420  -12.7010  -12.8880 C   0  0  1  0  0  0  0  0  0  0  0  0
    7.4170  -13.5270  -11.8860 Cl  0  0  0  0  0  0  0  0  0  0  0  0
    6.0000  -11.3090  -12.7730 C   0  0  0  0  0  0  0  0  0  0  0  0
    6.5950  -10.5740  -11.9950 O   0  0  0  0  0  0  0  0  0  0  0  0
    5.0750  -10.6670  -13.6050 N   0  0  0  0  0  0  0  0  0  0  0  0
    4.3020  -11.3470  -14.5720 C   0  0  0  0  0  0  0  0  0  0  0  0
    3.4930  -10.6850  -15.2530 O   0  0  0  0  0  0  0  0  0  0  0  0
    4.4650  -12.6780  -14.6720 N   0  0  0  0  0  0  0  0  0  0  0  0
    4.3460  -15.2610  -13.0850 O   0  0  0  0  0  0  0  0  0  0  0  0
    5.2720  -14.7760  -13.8810 C   0  0  0  0  0  0  0  0  0  0  0  0
    6.0440  -15.5540  -14.3510 O   0  0  0  0  0  0  0  0  0  0  0  0
  1  9  2  0  0  0  0
  1 11  1  0  0  0  0
  1  2  1  0  0  0  0
  2  4  1  0  0  0  0
  2  3  1  6  0  0  0
  4  6  1  0  0  0  0
  4  5  2  0  0  0  0
  6  7  2  0  0  0  0
  7  8  2  0  0  0  0
  7  9  1  0  0  0  0
 10 11  2  0  0  0  0
 11 12  1  0  0  0  0
M  END
>  <COMPND>
    UNNAMED

>  <AUTHOR>
    GENERATED BY OPEN BABEL 2.4.90

>  <MASTER>
        0    0    0    0    0    0    0    0   12    0   12    0

