__3w85_B_rec_3w1a_fot_lig_min.pdb
 OpenBabel10201911343D

 12 12  0  0  0  0  0  0  0  0999 V2000
    5.8570  -11.3010  -15.1090 C   0  0  0  0  0  0  0  0  0  0  0  0
    6.9530  -11.6720  -13.0490 C   0  0  0  0  0  0  0  0  0  0  0  0
    6.6520  -13.0380  -13.1950 C   0  0  0  0  0  0  0  0  0  0  0  0
    5.5080  -10.4410  -15.9940 O   0  0  0  0  0  0  0  0  0  0  0  0
    5.6060  -12.6090  -15.2630 N   0  0  0  0  0  0  0  0  0  0  0  0
    6.4970  -10.8320  -13.9760 N   0  0  0  0  0  0  0  0  0  0  0  0
    7.5170  -11.2240  -12.0430 O   0  0  0  0  0  0  0  0  0  0  0  0
    7.0930  -13.8700  -12.3020 F   0  0  0  0  0  0  0  0  0  0  0  0
    5.9760  -13.5010  -14.3400 C   0  0  0  0  0  0  0  0  0  0  0  0
    5.4810  -14.8890  -14.4060 C   0  0  0  0  0  0  0  0  0  0  0  0
    4.2150  -14.9190  -14.2580 O   0  0  0  0  0  0  0  0  0  0  0  0
    6.2050  -15.9000  -14.4330 O   0  0  0  0  0  0  0  0  0  0  0  0
  1  4  2  0  0  0  0
  1  5  2  0  0  0  0
  1  6  1  0  0  0  0
  2  6  1  0  0  0  0
  2  3  1  0  0  0  0
  2  7  2  0  0  0  0
  3  9  2  0  0  0  0
  3  8  1  0  0  0  0
  5  9  1  0  0  0  0
  9 10  1  0  0  0  0
 10 11  2  0  0  0  0
 10 12  1  0  0  0  0
M  END
>  <COMPND>
    UNNAMED

>  <AUTHOR>
    GENERATED BY OPEN BABEL 2.4.90

>  <MASTER>
        0    0    0    0    0    0    0    0   12    0   12    0

