__3w85_B_rec_3w85_w85_lig_min.pdb
 OpenBabel10201913223D

 23 24  0  0  0  0  0  0  0  0999 V2000
    5.7790  -13.4970  -14.1240 C   0  0  0  0  0  0  0  0  0  0  0  0
    5.4820  -12.5720  -15.1780 N   0  0  0  0  0  0  0  0  0  0  0  0
    5.8380  -11.2330  -15.0770 C   0  0  0  0  0  0  0  0  0  0  0  0
    5.5390  -10.4620  -15.9830 O   0  0  0  0  0  0  0  0  0  0  0  0
    6.5040  -10.7640  -13.9490 N   0  0  0  0  0  0  0  0  0  0  0  0
    6.8160  -11.6600  -12.9250 C   0  0  0  0  0  0  0  0  0  0  0  0
    7.4130  -11.2250  -11.9410 O   0  0  0  0  0  0  0  0  0  0  0  0
    6.4390  -13.0270  -12.9840 C   0  0  0  0  0  0  0  0  0  0  0  0
    4.0340  -15.0590  -14.3140 O   0  0  0  0  0  0  0  0  0  0  0  0
    5.3230  -14.8670  -14.3130 C   0  0  0  0  0  0  0  0  0  0  0  0
    6.1720  -15.8310  -14.4970 O   0  0  0  0  0  0  0  0  0  0  0  0
    6.7770  -13.9000  -11.8780 C   0  0  0  0  0  0  0  0  0  0  0  0
    5.9490  -13.5930  -10.5730 C   0  0  0  0  0  0  0  0  0  0  0  0
    4.5960  -13.9280  -10.7150 C   0  0  0  0  0  0  0  0  0  0  0  0
    3.5690  -12.9790  -10.7130 C   0  0  0  0  0  0  0  0  0  0  0  0
    4.2250  -15.2730  -10.9330 C   0  0  0  0  0  0  0  0  0  0  0  0
    2.8860  -15.6760  -11.1060 C   0  0  0  0  0  0  0  0  0  0  0  0
    1.8790  -14.7100  -11.0590 C   0  0  0  0  0  0  0  0  0  0  0  0
    2.1970  -13.3600  -10.8680 C   0  0  0  0  0  0  0  0  0  0  0  0
    1.1380  -12.3960  -10.8470 C   0  0  0  0  0  0  0  0  0  0  0  0
   -0.0220  -12.6980  -11.1630 O   0  0  0  0  0  0  0  0  0  0  0  0
    1.4750  -11.1170  -10.4660 O   0  0  0  0  0  0  0  0  0  0  0  0
    0.3620  -10.1490  -10.5240 C   0  0  0  0  0  0  0  0  0  0  0  0
  1  2  1  0  0  0  0
  1 10  1  0  0  0  0
  1  8  2  0  0  0  0
  2  3  2  0  0  0  0
  3  4  2  0  0  0  0
  3  5  1  0  0  0  0
  5  6  1  0  0  0  0
  6  8  1  0  0  0  0
  6  7  2  0  0  0  0
  8 12  1  0  0  0  0
  9 10  2  0  0  0  0
 10 11  1  0  0  0  0
 12 13  1  0  0  0  0
 13 14  1  0  0  0  0
 14 16  2  0  0  0  0
 14 15  1  0  0  0  0
 15 19  2  0  0  0  0
 16 17  1  0  0  0  0
 17 18  2  0  0  0  0
 18 19  1  0  0  0  0
 19 20  1  0  0  0  0
 20 21  2  0  0  0  0
 20 22  1  0  0  0  0
 22 23  1  0  0  0  0
M  END
>  <COMPND>
    UNNAMED

>  <AUTHOR>
    GENERATED BY OPEN BABEL 2.4.90

>  <MASTER>
        0    0    0    0    0    0    0    0   23    0   23    0

