__3w85_B_rec_2e68_dor_lig_min.pdb
 OpenBabel10201911353D

 11 11  0  0  1  0  0  0  0  0999 V2000
    3.7620  -10.1400  -13.8780 O   0  0  0  0  0  0  0  0  0  0  0  0
    4.6460  -10.9970  -13.7910 C   0  0  0  0  0  0  0  0  0  0  0  0
    4.4380  -12.2420  -14.2350 N   0  0  0  0  0  0  0  0  0  0  0  0
    5.8250  -10.6870  -13.2320 N   0  0  0  0  0  0  0  0  0  0  0  0
    6.8150  -11.5540  -12.9870 C   0  0  0  0  0  0  0  0  0  0  0  0
    7.8860  -11.2170  -12.5020 O   0  0  0  0  0  0  0  0  0  0  0  0
    6.5930  -13.0010  -13.3210 C   0  0  0  0  0  0  0  0  0  0  0  0
    5.5290  -13.2060  -14.3920 C   0  0  1  0  0  0  0  0  0  0  0  0
    5.1000  -14.6380  -14.3110 C   0  0  0  0  0  0  0  0  0  0  0  0
    3.8760  -14.9030  -14.2530 O   0  0  0  0  0  0  0  0  0  0  0  0
    6.0130  -15.4950  -14.3050 O   0  0  0  0  0  0  0  0  0  0  0  0
  1  2  2  0  0  0  0
  2  3  2  0  0  0  0
  2  4  1  0  0  0  0
  3  8  1  0  0  0  0
  4  5  1  0  0  0  0
  5  7  1  0  0  0  0
  5  6  2  0  0  0  0
  7  8  1  0  0  0  0
  8  9  1  1  0  0  0
  9 11  2  0  0  0  0
  9 10  1  0  0  0  0
M  END
>  <COMPND>
    UNNAMED

>  <AUTHOR>
    GENERATED BY OPEN BABEL 2.4.90

>  <MASTER>
        0    0    0    0    0    0    0    0   11    0   11    0

