__3w86_A_rec_3w7c_w7c_lig_min.pdb
 OpenBabel10201911593D

 25 27  0  0  0  0  0  0  0  0999 V2000
    7.0400  -13.7270  -12.1150 C   0  0  0  0  0  0  0  0  0  0  0  0
    6.1250  -13.5050  -14.3060 C   0  0  0  0  0  0  0  0  0  0  0  0
    5.7610  -12.7150  -15.4490 N   0  0  0  0  0  0  0  0  0  0  0  0
    6.1860  -11.3930  -15.4930 C   0  0  0  0  0  0  0  0  0  0  0  0
    5.8780  -10.6830  -16.4480 O   0  0  0  0  0  0  0  0  0  0  0  0
    6.8890  -10.8690  -14.4410 N   0  0  0  0  0  0  0  0  0  0  0  0
    7.1940  -11.6110  -13.2600 C   0  0  0  0  0  0  0  0  0  0  0  0
    7.8490  -11.0410  -12.3900 O   0  0  0  0  0  0  0  0  0  0  0  0
    6.8110  -12.9390  -13.2090 C   0  0  0  0  0  0  0  0  0  0  0  0
    6.2920  -15.8640  -14.4850 O   0  0  0  0  0  0  0  0  0  0  0  0
    5.5880  -14.8390  -14.3490 C   0  0  0  0  0  0  0  0  0  0  0  0
    4.3570  -14.9210  -14.3540 O   0  0  0  0  0  0  0  0  0  0  0  0
    6.3310  -13.1700  -10.8260 C   0  0  0  0  0  0  0  0  0  0  0  0
    5.1640  -13.9830  -10.6000 C   0  0  0  0  0  0  0  0  0  0  0  0
    5.1240  -15.1610   -9.8600 C   0  0  0  0  0  0  0  0  0  0  0  0
    3.9740  -13.5690  -11.2060 C   0  0  0  0  0  0  0  0  0  0  0  0
    2.8040  -14.2770  -11.1060 C   0  0  0  0  0  0  0  0  0  0  0  0
    2.7600  -15.4640  -10.4090 C   0  0  0  0  0  0  0  0  0  0  0  0
    3.9090  -15.8790   -9.7070 C   0  0  0  0  0  0  0  0  0  0  0  0
    3.8120  -17.0740   -8.9920 C   0  0  0  0  0  0  0  0  0  0  0  0
    2.6220  -17.8020   -8.9630 C   0  0  0  0  0  0  0  0  0  0  0  0
    1.4650  -17.3410   -9.5940 C   0  0  0  0  0  0  0  0  0  0  0  0
    1.5400  -16.1600  -10.3190 C   0  0  0  0  0  0  0  0  0  0  0  0
    0.4820  -15.5370  -10.9780 O   0  0  0  0  0  0  0  0  0  0  0  0
   -0.7510  -16.1900  -11.0090 C   0  0  0  0  0  0  0  0  0  0  0  0
  1  9  1  0  0  0  0
  1 13  1  0  0  0  0
  2  3  1  0  0  0  0
  2 11  1  0  0  0  0
  2  9  2  0  0  0  0
  3  4  2  0  0  0  0
  4  5  2  0  0  0  0
  4  6  1  0  0  0  0
  6  7  1  0  0  0  0
  7  9  1  0  0  0  0
  7  8  2  0  0  0  0
 10 11  2  0  0  0  0
 11 12  1  0  0  0  0
 13 14  1  0  0  0  0
 14 16  2  0  0  0  0
 14 15  1  0  0  0  0
 15 19  2  0  0  0  0
 16 17  1  0  0  0  0
 17 18  2  0  0  0  0
 18 23  1  0  0  0  0
 18 19  1  0  0  0  0
 19 20  1  0  0  0  0
 20 21  2  0  0  0  0
 21 22  1  0  0  0  0
 22 23  2  0  0  0  0
 23 24  1  0  0  0  0
 24 25  1  0  0  0  0
M  END
>  <COMPND>
    UNNAMED

>  <AUTHOR>
    GENERATED BY OPEN BABEL 2.4.90

>  <MASTER>
        0    0    0    0    0    0    0    0   25    0   25    0

