__3w86_A_rec_3w2l_vro_lig_min.pdb
 OpenBabel10201912023D

 21 22  0  0  0  0  0  0  0  0999 V2000
    6.0530  -13.5270  -14.2460 C   0  0  0  0  0  0  0  0  0  0  0  0
    5.6100  -12.6850  -15.2930 N   0  0  0  0  0  0  0  0  0  0  0  0
    5.9970  -11.3710  -15.3230 C   0  0  0  0  0  0  0  0  0  0  0  0
    5.5370  -10.5680  -16.1950 O   0  0  0  0  0  0  0  0  0  0  0  0
    6.7520  -10.8710  -14.3230 N   0  0  0  0  0  0  0  0  0  0  0  0
    7.2800  -11.6790  -13.2920 C   0  0  0  0  0  0  0  0  0  0  0  0
    7.9470  -11.1180  -12.4400 O   0  0  0  0  0  0  0  0  0  0  0  0
    6.8500  -13.0250  -13.2470 C   0  0  0  0  0  0  0  0  0  0  0  0
    6.3390  -15.8460  -14.4970 O   0  0  0  0  0  0  0  0  0  0  0  0
    5.5270  -14.8970  -14.3120 C   0  0  0  0  0  0  0  0  0  0  0  0
    4.2900  -15.0190  -14.2070 O   0  0  0  0  0  0  0  0  0  0  0  0
    7.3290  -13.8840  -12.1230 C   0  0  0  0  0  0  0  0  0  0  0  0
    6.7910  -13.4600  -10.8170 C   0  0  0  0  0  0  0  0  0  0  0  0
    5.5010  -13.9050  -10.6630 C   0  0  0  0  0  0  0  0  0  0  0  0
    5.0580  -15.2370  -10.6790 C   0  0  0  0  0  0  0  0  0  0  0  0
    3.6980  -15.6380  -10.5770 C   0  0  0  0  0  0  0  0  0  0  0  0
    2.7580  -14.6130  -10.3900 C   0  0  0  0  0  0  0  0  0  0  0  0
    3.2190  -13.3000  -10.2870 C   0  0  0  0  0  0  0  0  0  0  0  0
    4.5390  -12.9140  -10.4430 C   0  0  0  0  0  0  0  0  0  0  0  0
    1.3950  -14.8320  -10.1700 O   0  0  0  0  0  0  0  0  0  0  0  0
    0.5440  -13.6820   -9.7210 C   0  0  0  0  0  0  0  0  0  0  0  0
  1  2  1  0  0  0  0
  1 10  1  0  0  0  0
  1  8  2  0  0  0  0
  2  3  2  0  0  0  0
  3  4  2  0  0  0  0
  3  5  1  0  0  0  0
  5  6  1  0  0  0  0
  6  8  1  0  0  0  0
  6  7  2  0  0  0  0
  8 12  1  0  0  0  0
  9 10  2  0  0  0  0
 10 11  1  0  0  0  0
 12 13  1  0  0  0  0
 13 14  1  0  0  0  0
 14 15  2  0  0  0  0
 14 19  1  0  0  0  0
 15 16  1  0  0  0  0
 16 17  2  0  0  0  0
 17 20  1  0  0  0  0
 17 18  1  0  0  0  0
 18 19  2  0  0  0  0
 20 21  1  0  0  0  0
M  END
>  <COMPND>
    UNNAMED

>  <AUTHOR>
    GENERATED BY OPEN BABEL 2.4.90

>  <MASTER>
        0    0    0    0    0    0    0    0   21    0   21    0

