__3w88_A_rec_3w2k_kro_lig_min.pdb
 OpenBabel10201912513D

 21 22  0  0  0  0  0  0  0  0999 V2000
    5.5560  -13.4160  -13.8870 C   0  0  0  0  0  0  0  0  0  0  0  0
    5.2890  -12.5740  -15.0370 N   0  0  0  0  0  0  0  0  0  0  0  0
    5.7470  -11.2610  -15.0530 C   0  0  0  0  0  0  0  0  0  0  0  0
    5.5540  -10.5410  -16.0440 O   0  0  0  0  0  0  0  0  0  0  0  0
    6.5130  -10.8470  -13.9350 N   0  0  0  0  0  0  0  0  0  0  0  0
    6.7400  -11.6510  -12.7900 C   0  0  0  0  0  0  0  0  0  0  0  0
    7.3840  -11.1470  -11.8230 O   0  0  0  0  0  0  0  0  0  0  0  0
    6.1680  -12.9080  -12.7920 C   0  0  0  0  0  0  0  0  0  0  0  0
    5.5420  -15.8050  -14.2440 O   0  0  0  0  0  0  0  0  0  0  0  0
    4.8570  -14.7930  -13.9820 C   0  0  0  0  0  0  0  0  0  0  0  0
    3.6320  -14.7710  -13.8700 O   0  0  0  0  0  0  0  0  0  0  0  0
    6.3430  -13.7470  -11.6660 C   0  0  0  0  0  0  0  0  0  0  0  0
    5.5850  -13.1330  -10.4160 C   0  0  0  0  0  0  0  0  0  0  0  0
    4.5200  -13.7990  -10.2300 C   0  0  0  0  0  0  0  0  0  0  0  0
    4.7660  -15.0120   -9.6020 C   0  0  0  0  0  0  0  0  0  0  0  0
    3.7810  -15.9050   -9.4150 C   0  0  0  0  0  0  0  0  0  0  0  0
    4.0740  -17.1240   -8.7020 C   0  0  0  0  0  0  0  0  0  0  0  0
    2.4730  -15.5450   -9.8280 C   0  0  0  0  0  0  0  0  0  0  0  0
    1.4800  -16.4300   -9.6000 F   0  0  0  0  0  0  0  0  0  0  0  0
    2.1670  -14.3310  -10.4720 C   0  0  0  0  0  0  0  0  0  0  0  0
    3.2350  -13.4210  -10.6800 C   0  0  0  0  0  0  0  0  0  0  0  0
  1  2  1  0  0  0  0
  1 10  1  0  0  0  0
  1  8  2  0  0  0  0
  2  3  2  0  0  0  0
  3  4  2  0  0  0  0
  3  5  1  0  0  0  0
  5  6  1  0  0  0  0
  6  8  1  0  0  0  0
  6  7  2  0  0  0  0
  8 12  1  0  0  0  0
  9 10  2  0  0  0  0
 10 11  1  0  0  0  0
 12 13  1  0  0  0  0
 13 14  1  0  0  0  0
 14 21  2  0  0  0  0
 14 15  1  0  0  0  0
 15 16  2  0  0  0  0
 16 18  1  0  0  0  0
 16 17  1  0  0  0  0
 18 20  2  0  0  0  0
 18 19  1  0  0  0  0
 20 21  1  0  0  0  0
M  END
>  <COMPND>
    UNNAMED

>  <AUTHOR>
    GENERATED BY OPEN BABEL 2.4.90

>  <MASTER>
        0    0    0    0    0    0    0    0   21    0   21    0

