__3w88_A_rec_3w87_w87_lig_min.pdb
 OpenBabel10201912253D

 29 31  0  0  0  0  0  0  0  0999 V2000
    6.8320  -13.2450  -10.0710 C   0  0  0  0  0  0  0  0  0  0  0  0
    6.8960  -14.2130  -11.2480 C   0  0  0  0  0  0  0  0  0  0  0  0
    7.8390  -14.0210  -12.4920 C   0  0  0  0  0  0  0  0  0  0  0  0
    6.1780  -13.5400  -14.4180 C   0  0  0  0  0  0  0  0  0  0  0  0
    5.5840  -12.6780  -15.3150 N   0  0  0  0  0  0  0  0  0  0  0  0
    6.0270  -11.3830  -15.3550 C   0  0  0  0  0  0  0  0  0  0  0  0
    5.4920  -10.5880  -16.2040 O   0  0  0  0  0  0  0  0  0  0  0  0
    6.9690  -10.9110  -14.5210 N   0  0  0  0  0  0  0  0  0  0  0  0
    7.5900  -11.7410  -13.5760 C   0  0  0  0  0  0  0  0  0  0  0  0
    8.4310  -11.2100  -12.8340 O   0  0  0  0  0  0  0  0  0  0  0  0
    7.1750  -13.1200  -13.5460 C   0  0  0  0  0  0  0  0  0  0  0  0
    6.3460  -15.8810  -14.5250 O   0  0  0  0  0  0  0  0  0  0  0  0
    5.5280  -14.9000  -14.4250 C   0  0  0  0  0  0  0  0  0  0  0  0
    4.3220  -14.9050  -14.2340 O   0  0  0  0  0  0  0  0  0  0  0  0
    6.1520  -13.8750   -8.9760 C   0  0  0  0  0  0  0  0  0  0  0  0
    4.8510  -14.3900   -9.3870 C   0  0  0  0  0  0  0  0  0  0  0  0
    4.7050  -15.6740   -9.0200 C   0  0  0  0  0  0  0  0  0  0  0  0
    3.9200  -13.6480  -10.1000 C   0  0  0  0  0  0  0  0  0  0  0  0
    2.6940  -14.2430  -10.4230 C   0  0  0  0  0  0  0  0  0  0  0  0
    2.5230  -15.5850  -10.0320 C   0  0  0  0  0  0  0  0  0  0  0  0
    3.5240  -16.2720   -9.3120 C   0  0  0  0  0  0  0  0  0  0  0  0
    3.3800  -17.5680   -8.8520 C   0  0  0  0  0  0  0  0  0  0  0  0
    2.1380  -18.1740   -9.0950 C   0  0  0  0  0  0  0  0  0  0  0  0
    1.1280  -17.5230   -9.8420 C   0  0  0  0  0  0  0  0  0  0  0  0
    1.3180  -16.2300  -10.2770 C   0  0  0  0  0  0  0  0  0  0  0  0
    0.2090  -15.6380  -11.0490 C   0  0  0  0  0  0  0  0  0  0  0  0
   -0.1530  -16.0540  -12.1560 O   0  0  0  0  0  0  0  0  0  0  0  0
   -0.5660  -14.6270  -10.3660 O   0  0  0  0  0  0  0  0  0  0  0  0
   -1.5170  -15.1360   -9.3830 C   0  0  0  0  0  0  0  0  0  0  0  0
  1  2  1  0  0  0  0
  1 15  1  0  0  0  0
  2  3  1  0  0  0  0
  3 11  1  0  0  0  0
  4  5  1  0  0  0  0
  4 13  1  0  0  0  0
  4 11  2  0  0  0  0
  5  6  2  0  0  0  0
  6  7  2  0  0  0  0
  6  8  1  0  0  0  0
  8  9  1  0  0  0  0
  9 11  1  0  0  0  0
  9 10  2  0  0  0  0
 12 13  2  0  0  0  0
 13 14  1  0  0  0  0
 15 16  1  0  0  0  0
 16 18  2  0  0  0  0
 16 17  1  0  0  0  0
 17 21  2  0  0  0  0
 18 19  1  0  0  0  0
 19 20  2  0  0  0  0
 20 25  1  0  0  0  0
 20 21  1  0  0  0  0
 21 22  1  0  0  0  0
 22 23  2  0  0  0  0
 23 24  1  0  0  0  0
 24 25  2  0  0  0  0
 25 26  1  0  0  0  0
 26 27  2  0  0  0  0
 26 28  1  0  0  0  0
 28 29  1  0  0  0  0
M  END
>  <COMPND>
    UNNAMED

>  <AUTHOR>
    GENERATED BY OPEN BABEL 2.4.90

>  <MASTER>
        0    0    0    0    0    0    0    0   29    0   29    0

