__3w88_A_rec_3w1x_xro_lig_min.pdb
 OpenBabel10201912193D

 22 23  0  0  0  0  0  0  0  0999 V2000
    6.0470  -13.5540  -14.2640 C   0  0  0  0  0  0  0  0  0  0  0  0
    5.5110  -12.6610  -15.1990 N   0  0  0  0  0  0  0  0  0  0  0  0
    5.8330  -11.3460  -15.2280 C   0  0  0  0  0  0  0  0  0  0  0  0
    5.3210  -10.5590  -16.0690 O   0  0  0  0  0  0  0  0  0  0  0  0
    6.7230  -10.9020  -14.3120 N   0  0  0  0  0  0  0  0  0  0  0  0
    7.3890  -11.7620  -13.3930 C   0  0  0  0  0  0  0  0  0  0  0  0
    8.1580  -11.2240  -12.5930 O   0  0  0  0  0  0  0  0  0  0  0  0
    6.9420  -13.0990  -13.3510 C   0  0  0  0  0  0  0  0  0  0  0  0
    4.2120  -14.9870  -14.1400 O   0  0  0  0  0  0  0  0  0  0  0  0
    5.4420  -14.9030  -14.3230 C   0  0  0  0  0  0  0  0  0  0  0  0
    6.1990  -15.8940  -14.5210 O   0  0  0  0  0  0  0  0  0  0  0  0
    7.5260  -14.0160  -12.2930 C   0  0  0  0  0  0  0  0  0  0  0  0
    7.0700  -13.5870  -10.8200 C   0  0  0  0  0  0  0  0  0  0  0  0
    5.6930  -13.9580  -10.6400 C   0  0  0  0  0  0  0  0  0  0  0  0
    5.2560  -15.2840  -10.7090 C   0  0  0  0  0  0  0  0  0  0  0  0
    3.8740  -15.6110  -10.6580 C   0  0  0  0  0  0  0  0  0  0  0  0
    2.9400  -14.6630  -10.5190 C   0  0  0  0  0  0  0  0  0  0  0  0
    3.3220  -13.3620  -10.4200 C   0  0  0  0  0  0  0  0  0  0  0  0
    4.6850  -12.9980  -10.4790 C   0  0  0  0  0  0  0  0  0  0  0  0
    1.4770  -14.9520  -10.4970 C   0  0  0  0  0  0  0  0  0  0  0  0
    1.0780  -15.4660  -11.8320 C   0  0  0  0  0  0  0  0  0  0  0  0
    0.7680  -15.8310  -12.8960 N   0  0  0  0  0  0  0  0  0  0  0  0
  1  2  1  0  0  0  0
  1 10  1  0  0  0  0
  1  8  2  0  0  0  0
  2  3  2  0  0  0  0
  3  4  2  0  0  0  0
  3  5  1  0  0  0  0
  5  6  1  0  0  0  0
  6  8  1  0  0  0  0
  6  7  2  0  0  0  0
  8 12  1  0  0  0  0
  9 10  2  0  0  0  0
 10 11  1  0  0  0  0
 12 13  1  0  0  0  0
 13 14  1  0  0  0  0
 14 19  2  0  0  0  0
 14 15  1  0  0  0  0
 15 16  2  0  0  0  0
 16 17  1  0  0  0  0
 17 20  1  0  0  0  0
 17 18  2  0  0  0  0
 18 19  1  0  0  0  0
 20 21  1  0  0  0  0
 21 22  3  0  0  0  0
M  END
>  <COMPND>
    UNNAMED

>  <AUTHOR>
    GENERATED BY OPEN BABEL 2.4.90

>  <MASTER>
        0    0    0    0    0    0    0    0   22    0   22    0

