__3w88_A_rec_3w7e_w7f_lig_min.pdb
 OpenBabel10201913493D

 25 27  0  0  0  0  0  0  0  0999 V2000
    6.4040  -13.6140  -11.8030 C   0  0  0  0  0  0  0  0  0  0  0  0
    5.8940  -13.4880  -14.1690 C   0  0  0  0  0  0  0  0  0  0  0  0
    5.8680  -12.8040  -15.4240 N   0  0  0  0  0  0  0  0  0  0  0  0
    6.3180  -11.4890  -15.5130 C   0  0  0  0  0  0  0  0  0  0  0  0
    6.2110  -10.8440  -16.5460 O   0  0  0  0  0  0  0  0  0  0  0  0
    6.8860  -10.9400  -14.3700 N   0  0  0  0  0  0  0  0  0  0  0  0
    7.0030  -11.6470  -13.1430 C   0  0  0  0  0  0  0  0  0  0  0  0
    7.5530  -11.0620  -12.1880 O   0  0  0  0  0  0  0  0  0  0  0  0
    6.4090  -12.9480  -13.0670 C   0  0  0  0  0  0  0  0  0  0  0  0
    4.0890  -14.8860  -14.3030 O   0  0  0  0  0  0  0  0  0  0  0  0
    5.3080  -14.8800  -14.2110 C   0  0  0  0  0  0  0  0  0  0  0  0
    6.0560  -15.8490  -14.3640 O   0  0  0  0  0  0  0  0  0  0  0  0
    5.3230  -13.0000  -10.8080 C   0  0  0  0  0  0  0  0  0  0  0  0
    4.3170  -14.1050  -10.5750 C   0  0  0  0  0  0  0  0  0  0  0  0
    2.9850  -14.0200  -11.1510 C   0  0  0  0  0  0  0  0  0  0  0  0
    2.5840  -12.8780  -11.8090 C   0  0  0  0  0  0  0  0  0  0  0  0
    1.3090  -12.8180  -12.3500 C   0  0  0  0  0  0  0  0  0  0  0  0
    0.5010  -13.9390  -12.1220 C   0  0  0  0  0  0  0  0  0  0  0  0
    0.8410  -15.0510  -11.4780 C   0  0  0  0  0  0  0  0  0  0  0  0
    2.1260  -15.1360  -10.9500 C   0  0  0  0  0  0  0  0  0  0  0  0
    2.5310  -16.2840  -10.2250 C   0  0  0  0  0  0  0  0  0  0  0  0
    3.7930  -16.4070   -9.6310 C   0  0  0  0  0  0  0  0  0  0  0  0
    4.6660  -15.2840   -9.8750 C   0  0  0  0  0  0  0  0  0  0  0  0
    0.9050  -11.6820  -13.0840 O   0  0  0  0  0  0  0  0  0  0  0  0
    1.6900  -10.4640  -13.3600 C   0  0  0  0  0  0  0  0  0  0  0  0
  1  9  1  0  0  0  0
  1 13  1  0  0  0  0
  2  3  1  0  0  0  0
  2 11  1  0  0  0  0
  2  9  2  0  0  0  0
  3  4  2  0  0  0  0
  4  5  2  0  0  0  0
  4  6  1  0  0  0  0
  6  7  1  0  0  0  0
  7  9  1  0  0  0  0
  7  8  2  0  0  0  0
 10 11  2  0  0  0  0
 11 12  1  0  0  0  0
 13 14  1  0  0  0  0
 14 15  2  0  0  0  0
 14 23  1  0  0  0  0
 15 16  1  0  0  0  0
 15 20  1  0  0  0  0
 16 17  2  0  0  0  0
 17 24  1  0  0  0  0
 17 18  1  0  0  0  0
 18 19  2  0  0  0  0
 19 20  1  0  0  0  0
 20 21  2  0  0  0  0
 21 22  1  0  0  0  0
 22 23  2  0  0  0  0
 24 25  1  0  0  0  0
M  END
>  <COMPND>
    UNNAMED

>  <AUTHOR>
    GENERATED BY OPEN BABEL 2.4.90

>  <MASTER>
        0    0    0    0    0    0    0    0   25    0   25    0

