__3w88_A_rec_2e6a_oro_lig_min.pdb
 OpenBabel10201913353D

 11 11  0  0  0  0  0  0  0  0999 V2000
    5.1940  -12.6940  -14.4560 N   0  0  0  0  0  0  0  0  0  0  0  0
    5.1430  -11.3580  -14.3210 C   0  0  0  0  0  0  0  0  0  0  0  0
    4.3630  -10.6680  -15.0330 O   0  0  0  0  0  0  0  0  0  0  0  0
    5.9440  -10.7300  -13.4170 N   0  0  0  0  0  0  0  0  0  0  0  0
    6.7690  -11.4320  -12.6230 C   0  0  0  0  0  0  0  0  0  0  0  0
    7.4720  -10.8330  -11.7970 O   0  0  0  0  0  0  0  0  0  0  0  0
    6.8310  -12.8300  -12.7100 C   0  0  0  0  0  0  0  0  0  0  0  0
    6.0340  -13.4270  -13.6920 C   0  0  0  0  0  0  0  0  0  0  0  0
    5.9730  -14.9110  -13.7720 C   0  0  0  0  0  0  0  0  0  0  0  0
    6.9680  -15.6610  -13.6950 O   0  0  0  0  0  0  0  0  0  0  0  0
    4.7910  -15.3150  -13.8130 O   0  0  0  0  0  0  0  0  0  0  0  0
  1  2  2  0  0  0  0
  1  8  1  0  0  0  0
  2  3  2  0  0  0  0
  2  4  1  0  0  0  0
  4  5  1  0  0  0  0
  5  7  1  0  0  0  0
  5  6  2  0  0  0  0
  7  8  2  0  0  0  0
  8  9  1  0  0  0  0
  9 11  2  0  0  0  0
  9 10  1  0  0  0  0
M  END
>  <COMPND>
    UNNAMED

>  <AUTHOR>
    GENERATED BY OPEN BABEL 2.4.90

>  <MASTER>
        0    0    0    0    0    0    0    0   11    0   11    0

