__3w88_A_rec_3w7j_w7j_lig_min.pdb
 OpenBabel10201913523D

 26 28  0  0  0  0  0  0  0  0999 V2000
    5.9790  -13.3940  -10.4290 C   0  0  0  0  0  0  0  0  0  0  0  0
    4.7850  -14.1370  -10.3970 C   0  0  0  0  0  0  0  0  0  0  0  0
    4.6640  -15.4380   -9.8270 C   0  0  0  0  0  0  0  0  0  0  0  0
    3.4220  -16.1250   -9.8750 C   0  0  0  0  0  0  0  0  0  0  0  0
    3.2460  -17.4330   -9.3950 C   0  0  0  0  0  0  0  0  0  0  0  0
    1.9710  -17.9910   -9.4990 C   0  0  0  0  0  0  0  0  0  0  0  0
    0.9470  -17.2700  -10.1160 C   0  0  0  0  0  0  0  0  0  0  0  0
    1.1160  -16.0330  -10.5580 C   0  0  0  0  0  0  0  0  0  0  0  0
    2.3470  -15.4960  -10.4810 C   0  0  0  0  0  0  0  0  0  0  0  0
    2.4580  -14.2560  -11.0200 C   0  0  0  0  0  0  0  0  0  0  0  0
    3.6550  -13.5870  -10.9680 C   0  0  0  0  0  0  0  0  0  0  0  0
   -0.3440  -17.7150  -10.2800 C   0  0  0  0  0  0  0  0  0  0  0  0
   -0.7910  -18.5400   -9.4780 O   0  0  0  0  0  0  0  0  0  0  0  0
   -1.0180  -17.2030  -11.1550 O   0  0  0  0  0  0  0  0  0  0  0  0
    6.8470  -13.7770  -11.7110 C   0  0  0  0  0  0  0  0  0  0  0  0
    5.8750  -13.5010  -14.0760 C   0  0  0  0  0  0  0  0  0  0  0  0
    5.5840  -12.6860  -15.2150 N   0  0  0  0  0  0  0  0  0  0  0  0
    5.9860  -11.3570  -15.2120 C   0  0  0  0  0  0  0  0  0  0  0  0
    5.7020  -10.5800  -16.1480 O   0  0  0  0  0  0  0  0  0  0  0  0
    6.6240  -10.8670  -14.1430 N   0  0  0  0  0  0  0  0  0  0  0  0
    6.9280  -11.6370  -12.9650 C   0  0  0  0  0  0  0  0  0  0  0  0
    7.5410  -11.0920  -12.0500 O   0  0  0  0  0  0  0  0  0  0  0  0
    6.5190  -12.9930  -12.9350 C   0  0  0  0  0  0  0  0  0  0  0  0
    4.1310  -15.0570  -14.1080 O   0  0  0  0  0  0  0  0  0  0  0  0
    5.3700  -14.8490  -14.1960 C   0  0  0  0  0  0  0  0  0  0  0  0
    6.2200  -15.7970  -14.3450 O   0  0  0  0  0  0  0  0  0  0  0  0
  1 15  1  0  0  0  0
  1  2  1  0  0  0  0
  2 11  2  0  0  0  0
  2  3  1  0  0  0  0
  3  4  2  0  0  0  0
  4  9  1  0  0  0  0
  4  5  1  0  0  0  0
  5  6  2  0  0  0  0
  6  7  1  0  0  0  0
  7  8  2  0  0  0  0
  7 12  1  0  0  0  0
  8  9  1  0  0  0  0
  9 10  2  0  0  0  0
 10 11  1  0  0  0  0
 12 14  2  0  0  0  0
 12 13  1  0  0  0  0
 15 23  1  0  0  0  0
 16 17  1  0  0  0  0
 16 25  1  0  0  0  0
 16 23  2  0  0  0  0
 17 18  2  0  0  0  0
 18 19  2  0  0  0  0
 18 20  1  0  0  0  0
 20 21  1  0  0  0  0
 21 23  1  0  0  0  0
 21 22  2  0  0  0  0
 24 25  2  0  0  0  0
 25 26  1  0  0  0  0
M  END
>  <COMPND>
    UNNAMED

>  <AUTHOR>
    GENERATED BY OPEN BABEL 2.4.90

>  <MASTER>
        0    0    0    0    0    0    0    0   26    0   26    0

