__4jd4_B_rec_3w22_2ro_lig_min.pdb
 OpenBabel10201913253D

 23 24  0  0  0  0  0  0  0  0999 V2000
    5.7040  -13.6090  -14.5590 C   0  0  0  0  0  0  0  0  0  0  0  0
    5.3600  -12.7450  -15.6330 N   0  0  0  0  0  0  0  0  0  0  0  0
    5.6980  -11.3820  -15.6200 C   0  0  0  0  0  0  0  0  0  0  0  0
    5.4280  -10.6240  -16.5630 O   0  0  0  0  0  0  0  0  0  0  0  0
    6.3510  -10.8910  -14.5080 N   0  0  0  0  0  0  0  0  0  0  0  0
    6.6300  -11.6970  -13.3670 C   0  0  0  0  0  0  0  0  0  0  0  0
    7.1610  -11.1170  -12.3940 O   0  0  0  0  0  0  0  0  0  0  0  0
    6.2920  -13.0890  -13.3890 C   0  0  0  0  0  0  0  0  0  0  0  0
    6.0080  -15.9300  -14.8530 O   0  0  0  0  0  0  0  0  0  0  0  0
    5.2410  -14.9600  -14.7000 C   0  0  0  0  0  0  0  0  0  0  0  0
    3.9970  -15.1410  -14.6500 O   0  0  0  0  0  0  0  0  0  0  0  0
    6.5430  -13.9380  -12.3330 C   0  0  0  0  0  0  0  0  0  0  0  0
    5.7460  -13.4540  -11.0810 C   0  0  0  0  0  0  0  0  0  0  0  0
    4.4590  -14.0710  -11.2330 C   0  0  0  0  0  0  0  0  0  0  0  0
    3.3690  -13.2800  -11.5740 C   0  0  0  0  0  0  0  0  0  0  0  0
    2.0860  -13.8210  -11.7610 C   0  0  0  0  0  0  0  0  0  0  0  0
    1.8180  -15.2030  -11.6030 C   0  0  0  0  0  0  0  0  0  0  0  0
    2.9370  -15.9890  -11.2880 C   0  0  0  0  0  0  0  0  0  0  0  0
    4.2130  -15.4250  -11.1110 C   0  0  0  0  0  0  0  0  0  0  0  0
    0.4310  -15.6380  -11.8760 C   0  0  0  0  0  0  0  0  0  0  0  0
   -0.6440  -14.7040  -11.2110 C   0  0  0  0  0  0  0  0  0  0  0  0
    0.1760  -15.5410  -13.4310 C   0  0  0  0  0  0  0  0  0  0  0  0
    0.1630  -17.1240  -11.4410 C   0  0  0  0  0  0  0  0  0  0  0  0
  1  2  1  0  0  0  0
  1 10  1  0  0  0  0
  1  8  2  0  0  0  0
  2  3  2  0  0  0  0
  3  4  2  0  0  0  0
  3  5  1  0  0  0  0
  5  6  1  0  0  0  0
  6  8  1  0  0  0  0
  6  7  2  0  0  0  0
  8 12  1  0  0  0  0
  9 10  2  0  0  0  0
 10 11  1  0  0  0  0
 12 13  1  0  0  0  0
 13 14  1  0  0  0  0
 14 15  2  0  0  0  0
 14 19  1  0  0  0  0
 15 16  1  0  0  0  0
 16 17  2  0  0  0  0
 17 20  1  0  0  0  0
 17 18  1  0  0  0  0
 18 19  2  0  0  0  0
 20 22  1  0  0  0  0
 20 21  1  0  0  0  0
 20 23  1  0  0  0  0
M  END
>  <COMPND>
    UNNAMED

>  <AUTHOR>
    GENERATED BY OPEN BABEL 2.4.90

>  <MASTER>
        0    0    0    0    0    0    0    0   23    0   23    0

