__4jd4_B_rec_3w74_w74_lig_min.pdb
 OpenBabel10201912323D

 24 25  0  0  0  0  0  0  0  0999 V2000
    5.7860  -13.5630  -14.7320 C   0  0  0  0  0  0  0  0  0  0  0  0
    5.4270  -12.7340  -15.7840 N   0  0  0  0  0  0  0  0  0  0  0  0
    5.8250  -11.4000  -15.7790 C   0  0  0  0  0  0  0  0  0  0  0  0
    5.4480  -10.6620  -16.6640 O   0  0  0  0  0  0  0  0  0  0  0  0
    6.5200  -10.9180  -14.7210 N   0  0  0  0  0  0  0  0  0  0  0  0
    6.8840  -11.7080  -13.6320 C   0  0  0  0  0  0  0  0  0  0  0  0
    7.4860  -11.1460  -12.7030 O   0  0  0  0  0  0  0  0  0  0  0  0
    6.4810  -13.0770  -13.6130 C   0  0  0  0  0  0  0  0  0  0  0  0
    5.9410  -15.8920  -14.8790 O   0  0  0  0  0  0  0  0  0  0  0  0
    5.2600  -14.8700  -14.8420 C   0  0  0  0  0  0  0  0  0  0  0  0
    4.0370  -14.9890  -14.7380 O   0  0  0  0  0  0  0  0  0  0  0  0
    6.8150  -13.8890  -12.5120 C   0  0  0  0  0  0  0  0  0  0  0  0
    6.0080  -13.3940  -11.2210 C   0  0  0  0  0  0  0  0  0  0  0  0
    4.6660  -13.7990  -11.2900 C   0  0  0  0  0  0  0  0  0  0  0  0
    3.6780  -12.8660  -11.5470 C   0  0  0  0  0  0  0  0  0  0  0  0
    2.3150  -13.2250  -11.6740 C   0  0  0  0  0  0  0  0  0  0  0  0
    1.9180  -14.5630  -11.5110 C   0  0  0  0  0  0  0  0  0  0  0  0
    2.9440  -15.4980  -11.2770 C   0  0  0  0  0  0  0  0  0  0  0  0
    4.2890  -15.1360  -11.1520 C   0  0  0  0  0  0  0  0  0  0  0  0
    0.5470  -14.9190  -11.6210 O   0  0  0  0  0  0  0  0  0  0  0  0
    0.2620  -15.7660  -12.7440 C   0  0  0  0  0  0  0  0  0  0  0  0
    0.3910  -16.9840  -12.3900 F   0  0  0  0  0  0  0  0  0  0  0  0
    1.1410  -15.4700  -13.8260 F   0  0  0  0  0  0  0  0  0  0  0  0
   -0.9640  -15.5620  -13.1070 F   0  0  0  0  0  0  0  0  0  0  0  0
  1  2  1  0  0  0  0
  1 10  1  0  0  0  0
  1  8  2  0  0  0  0
  2  3  2  0  0  0  0
  3  4  2  0  0  0  0
  3  5  1  0  0  0  0
  5  6  1  0  0  0  0
  6  8  1  0  0  0  0
  6  7  2  0  0  0  0
  8 12  1  0  0  0  0
  9 10  2  0  0  0  0
 10 11  1  0  0  0  0
 12 13  1  0  0  0  0
 13 14  1  0  0  0  0
 14 15  2  0  0  0  0
 14 19  1  0  0  0  0
 15 16  1  0  0  0  0
 16 17  2  0  0  0  0
 17 20  1  0  0  0  0
 17 18  1  0  0  0  0
 18 19  2  0  0  0  0
 20 21  1  0  0  0  0
 21 23  1  0  0  0  0
 21 24  1  0  0  0  0
 21 22  1  0  0  0  0
M  END
>  <COMPND>
    UNNAMED

>  <AUTHOR>
    GENERATED BY OPEN BABEL 2.4.90

>  <MASTER>
        0    0    0    0    0    0    0    0   24    0   24    0

