__4jd4_B_rec_3w3o_roe_lig_min.pdb
 OpenBabel10201915173D

 25 27  0  0  0  0  0  0  0  0999 V2000
    6.4770  -13.9270  -12.2270 C   0  0  0  0  0  0  0  0  0  0  0  0
    5.6660  -13.6000  -14.5000 C   0  0  0  0  0  0  0  0  0  0  0  0
    5.3430  -12.7310  -15.5980 N   0  0  0  0  0  0  0  0  0  0  0  0
    5.6500  -11.3680  -15.5740 C   0  0  0  0  0  0  0  0  0  0  0  0
    5.3370  -10.6180  -16.5140 O   0  0  0  0  0  0  0  0  0  0  0  0
    6.2630  -10.8800  -14.4270 N   0  0  0  0  0  0  0  0  0  0  0  0
    6.5670  -11.6810  -13.2730 C   0  0  0  0  0  0  0  0  0  0  0  0
    7.1400  -11.1280  -12.3000 O   0  0  0  0  0  0  0  0  0  0  0  0
    6.2490  -13.0890  -13.3250 C   0  0  0  0  0  0  0  0  0  0  0  0
    3.9900  -15.1840  -14.6970 O   0  0  0  0  0  0  0  0  0  0  0  0
    5.2450  -14.9630  -14.6780 C   0  0  0  0  0  0  0  0  0  0  0  0
    6.0810  -15.9070  -14.7990 O   0  0  0  0  0  0  0  0  0  0  0  0
    5.5010  -13.4480  -11.0190 C   0  0  0  0  0  0  0  0  0  0  0  0
    4.4350  -14.4720  -10.8890 C   0  0  0  0  0  0  0  0  0  0  0  0
    3.1770  -14.4080  -11.5100 C   0  0  0  0  0  0  0  0  0  0  0  0
    2.3030  -15.5070  -11.2800 C   0  0  0  0  0  0  0  0  0  0  0  0
    1.0980  -15.4790  -11.9070 C   0  0  0  0  0  0  0  0  0  0  0  0
    0.2340  -16.5160  -11.7440 C   0  0  0  0  0  0  0  0  0  0  0  0
    0.4710  -17.6110  -10.9440 C   0  0  0  0  0  0  0  0  0  0  0  0
    1.6730  -17.7090  -10.2940 C   0  0  0  0  0  0  0  0  0  0  0  0
    2.5560  -16.6300  -10.4840 C   0  0  0  0  0  0  0  0  0  0  0  0
    3.7510  -16.6780   -9.8450 C   0  0  0  0  0  0  0  0  0  0  0  0
    4.6420  -15.6030  -10.1010 C   0  0  0  0  0  0  0  0  0  0  0  0
   -0.4930  -18.5890  -10.8250 O   0  0  0  0  0  0  0  0  0  0  0  0
   -1.7770  -18.1620  -11.2040 C   0  0  0  0  0  0  0  0  0  0  0  0
  1  9  1  0  0  0  0
  1 13  1  0  0  0  0
  2  3  1  0  0  0  0
  2 11  1  0  0  0  0
  2  9  2  0  0  0  0
  3  4  2  0  0  0  0
  4  5  2  0  0  0  0
  4  6  1  0  0  0  0
  6  7  1  0  0  0  0
  7  9  1  0  0  0  0
  7  8  2  0  0  0  0
 10 11  2  0  0  0  0
 11 12  1  0  0  0  0
 13 14  1  0  0  0  0
 14 15  2  0  0  0  0
 14 23  1  0  0  0  0
 15 16  1  0  0  0  0
 16 17  2  0  0  0  0
 16 21  1  0  0  0  0
 17 18  1  0  0  0  0
 18 19  2  0  0  0  0
 19 24  1  0  0  0  0
 19 20  1  0  0  0  0
 20 21  2  0  0  0  0
 21 22  1  0  0  0  0
 22 23  2  0  0  0  0
 24 25  1  0  0  0  0
M  END
>  <COMPND>
    UNNAMED

>  <AUTHOR>
    GENERATED BY OPEN BABEL 2.4.90

>  <MASTER>
        0    0    0    0    0    0    0    0   25    0   25    0

