__1fag_A_rec_3ekd_pam_lig_min.pdb
 OpenBabel10181915323D

 18 17  0  0  0  0  0  0  0  0999 V2000
   17.4710   53.8720   21.5810 C   0  0  0  0  0  0  0  0  0  0  0  0
   17.5910   54.4270   23.0150 C   0  0  0  0  0  0  0  0  0  0  0  0
   16.2920   54.5330   23.8300 C   0  0  0  0  0  0  0  0  0  0  0  0
   16.5310   55.0470   25.2630 C   0  0  0  0  0  0  0  0  0  0  0  0
   15.3190   55.7930   25.8560 C   0  0  0  0  0  0  0  0  0  0  0  0
   15.5910   56.6870   27.1010 C   0  0  0  0  0  0  0  0  0  0  0  0
   16.5780   57.8630   26.9700 C   0  0  0  0  0  0  0  0  0  0  0  0
   16.5980   58.5140   25.8860 O   0  0  0  0  0  0  0  0  0  0  0  0
   17.3880   58.1850   27.9160 O   0  0  0  0  0  0  0  0  0  0  0  0
   18.7040   53.0060   21.2130 C   0  0  0  0  0  0  0  0  0  0  0  0
   18.4120   51.9580   20.1130 C   0  0  0  0  0  0  0  0  0  0  0  0
   19.6330   51.2090   19.5630 C   0  0  0  0  0  0  0  0  0  0  0  0
   20.6800   50.8620   20.6190 C   0  0  0  0  0  0  0  0  0  0  0  0
   21.3360   49.4870   20.4480 C   0  0  0  0  0  0  0  0  0  0  0  0
   22.5450   49.4710   19.5050 C   0  0  0  0  0  0  0  0  0  0  0  0
   22.3020   48.7190   18.1800 C   0  0  0  0  0  0  0  0  0  0  0  0
   23.0060   47.3500   18.0120 C   0  0  0  0  0  0  0  0  0  0  0  0
   24.4940   47.3770   17.6090 C   0  0  0  0  0  0  0  0  0  0  0  0
  1 10  1  0  0  0  0
  1  2  1  0  0  0  0
  2  3  1  0  0  0  0
  3  4  1  0  0  0  0
  4  5  1  0  0  0  0
  5  6  1  0  0  0  0
  6  7  1  0  0  0  0
  7  8  2  0  0  0  0
  7  9  1  0  0  0  0
 10 11  1  0  0  0  0
 11 12  1  0  0  0  0
 12 13  1  0  0  0  0
 13 14  1  0  0  0  0
 14 15  1  0  0  0  0
 15 16  1  0  0  0  0
 16 17  1  0  0  0  0
 17 18  1  0  0  0  0
M  END
>  <COMPND>
    UNNAMED

>  <AUTHOR>
    GENERATED BY OPEN BABEL 2.4.90

>  <MASTER>
        0    0    0    0    0    0    0    0   18    0   18    0

