__1smi_A_rec_1smj_pam_lig_min.pdb
 OpenBabel10181914163D

 18 17  0  0  0  0  0  0  0  0999 V2000
   19.0500   53.6580   21.0040 C   0  0  0  0  0  0  0  0  0  0  0  0
   19.4160   54.2050   22.3630 C   0  0  0  0  0  0  0  0  0  0  0  0
   18.1560   54.6800   23.0440 C   0  0  0  0  0  0  0  0  0  0  0  0
   18.4340   56.0630   23.6490 C   0  0  0  0  0  0  0  0  0  0  0  0
   17.2840   56.3790   24.5910 C   0  0  0  0  0  0  0  0  0  0  0  0
   17.7690   56.7980   25.9510 C   0  0  0  0  0  0  0  0  0  0  0  0
   17.2820   58.2170   26.2050 C   0  0  0  0  0  0  0  0  0  0  0  0
   17.7160   59.1760   25.5200 O   0  0  0  0  0  0  0  0  0  0  0  0
   16.4330   58.4580   27.1120 O   0  0  0  0  0  0  0  0  0  0  0  0
   19.6260   52.2860   20.8830 C   0  0  0  0  0  0  0  0  0  0  0  0
   19.3950   51.8530   19.4470 C   0  0  0  0  0  0  0  0  0  0  0  0
   20.1160   50.5160   19.1520 C   0  0  0  0  0  0  0  0  0  0  0  0
   21.2880   50.2030   20.1040 C   0  0  0  0  0  0  0  0  0  0  0  0
   22.3220   49.2630   19.4550 C   0  0  0  0  0  0  0  0  0  0  0  0
   21.9900   48.7410   18.0310 C   0  0  0  0  0  0  0  0  0  0  0  0
   23.1510   47.8480   17.5750 C   0  0  0  0  0  0  0  0  0  0  0  0
   24.3720   48.0440   18.4620 C   0  0  0  0  0  0  0  0  0  0  0  0
   25.4830   47.1480   17.8810 C   0  0  0  0  0  0  0  0  0  0  0  0
  1 10  1  0  0  0  0
  1  2  1  0  0  0  0
  2  3  1  0  0  0  0
  3  4  1  0  0  0  0
  4  5  1  0  0  0  0
  5  6  1  0  0  0  0
  6  7  1  0  0  0  0
  7  8  2  0  0  0  0
  7  9  1  0  0  0  0
 10 11  1  0  0  0  0
 11 12  1  0  0  0  0
 12 13  1  0  0  0  0
 13 14  1  0  0  0  0
 14 15  1  0  0  0  0
 15 16  1  0  0  0  0
 16 17  1  0  0  0  0
 17 18  1  0  0  0  0
M  END
>  <COMPND>
    UNNAMED

>  <AUTHOR>
    GENERATED BY OPEN BABEL 2.4.90

>  <MASTER>
        0    0    0    0    0    0    0    0   18    0   18    0

