__1smj_A_rec_1fag_pam_lig_min.pdb
 OpenBabel10181912243D

 18 17  0  0  0  0  0  0  0  0999 V2000
   18.2740   53.2550   21.2470 C   0  0  0  0  0  0  0  0  0  0  0  0
   18.3730   53.9620   22.5500 C   0  0  0  0  0  0  0  0  0  0  0  0
   17.0290   54.3140   23.1010 C   0  0  0  0  0  0  0  0  0  0  0  0
   17.2410   54.9820   24.4310 C   0  0  0  0  0  0  0  0  0  0  0  0
   16.0230   55.7400   24.8960 C   0  0  0  0  0  0  0  0  0  0  0  0
   16.1270   56.1070   26.3720 C   0  0  0  0  0  0  0  0  0  0  0  0
   16.3010   57.5990   26.6400 C   0  0  0  0  0  0  0  0  0  0  0  0
   16.4130   58.3960   25.6860 O   0  0  0  0  0  0  0  0  0  0  0  0
   16.3200   57.9830   27.8260 O   0  0  0  0  0  0  0  0  0  0  0  0
   19.6420   52.8000   20.8400 C   0  0  0  0  0  0  0  0  0  0  0  0
   19.6690   52.1650   19.4820 C   0  0  0  0  0  0  0  0  0  0  0  0
   19.9580   50.8210   19.3430 C   0  0  0  0  0  0  0  0  0  0  0  0
   20.2560   49.9620   20.5500 C   0  0  0  0  0  0  0  0  0  0  0  0
   21.3390   48.9370   20.3020 C   0  0  0  0  0  0  0  0  0  0  0  0
   22.3200   49.4380   19.2510 C   0  0  0  0  0  0  0  0  0  0  0  0
   22.3910   48.5050   18.0620 C   0  0  0  0  0  0  0  0  0  0  0  0
   23.2620   47.3070   18.3470 C   0  0  0  0  0  0  0  0  0  0  0  0
   24.4610   47.2250   17.4770 C   0  0  0  0  0  0  0  0  0  0  0  0
  1 10  1  0  0  0  0
  1  2  1  0  0  0  0
  2  3  1  0  0  0  0
  3  4  1  0  0  0  0
  4  5  1  0  0  0  0
  5  6  1  0  0  0  0
  6  7  1  0  0  0  0
  7  8  2  0  0  0  0
  7  9  1  0  0  0  0
 10 11  1  0  0  0  0
 11 12  2  0  0  0  0
 12 13  1  0  0  0  0
 13 14  1  0  0  0  0
 14 15  1  0  0  0  0
 15 16  1  0  0  0  0
 16 17  1  0  0  0  0
 17 18  1  0  0  0  0
M  END
>  <COMPND>
    UNNAMED

>  <AUTHOR>
    GENERATED BY OPEN BABEL 2.4.90

>  <MASTER>
        0    0    0    0    0    0    0    0   18    0   18    0

