__1zo9_A_rec_5b2u_w06_lig_min.pdb
 OpenBabel10181913093D

 33 34  0  0  1  0  0  0  0  0999 V2000
   16.8180   58.0550   26.1430 C   0  0  0  0  0  0  0  0  0  0  0  0
   16.4730   59.0870   25.5790 O   0  0  0  0  0  0  0  0  0  0  0  0
   18.0180   57.9060   26.7800 N   0  0  0  0  0  0  0  0  0  0  0  0
   15.8190   56.8620   26.0860 C   0  0  0  0  0  0  0  0  0  0  0  0
   15.5780   56.4160   27.3240 F   0  0  0  0  0  0  0  0  0  0  0  0
   14.6620   57.3030   25.4810 F   0  0  0  0  0  0  0  0  0  0  0  0
   16.2750   55.6950   25.2380 C   0  0  0  0  0  0  0  0  0  0  0  0
   17.3690   55.1810   25.8900 F   0  0  0  0  0  0  0  0  0  0  0  0
   15.2390   54.7620   25.2280 F   0  0  0  0  0  0  0  0  0  0  0  0
   16.6490   56.1120   23.7790 C   0  0  0  0  0  0  0  0  0  0  0  0
   15.8510   57.1920   23.3470 F   0  0  0  0  0  0  0  0  0  0  0  0
   17.8510   56.5180   23.9000 F   0  0  0  0  0  0  0  0  0  0  0  0
   16.5330   54.9430   22.6970 C   0  0  0  0  0  0  0  0  0  0  0  0
   15.5910   55.0220   22.4300 F   0  0  0  0  0  0  0  0  0  0  0  0
   17.0060   53.7100   23.4810 F   0  0  0  0  0  0  0  0  0  0  0  0
   17.9330   56.5360   21.6690 F   0  0  0  0  0  0  0  0  0  0  0  0
   17.5830   55.2680   21.6430 C   0  0  0  0  0  0  0  0  0  0  0  0
   18.6770   54.4960   21.7670 F   0  0  0  0  0  0  0  0  0  0  0  0
   17.0420   54.9850   20.4440 F   0  0  0  0  0  0  0  0  0  0  0  0
   19.0530   58.9870   26.7690 C   0  0  2  0  0  0  0  0  0  0  0  0
   20.5030   58.4370   26.9370 C   0  0  0  0  0  0  0  0  0  0  0  0
   20.6410   57.1970   26.9440 O   0  0  0  0  0  0  0  0  0  0  0  0
   21.4460   59.2700   27.0150 O   0  0  0  0  0  0  0  0  0  0  0  0
   18.7620   60.0760   27.7810 C   0  0  0  0  0  0  0  0  0  0  0  0
   19.1640   59.6730   29.2180 C   0  0  0  0  0  0  0  0  0  0  0  0
   19.5190   60.5860   30.1220 C   0  0  2  0  0  0  0  0  0  0  0  0
   19.6220   61.9190   30.0420 C   0  0  0  0  0  0  0  0  0  0  0  0
   20.0270   62.6710   31.1380 C   0  0  0  0  0  0  0  0  0  0  0  0
   20.3060   61.9940   32.3170 C   0  0  0  0  0  0  0  0  0  0  0  0
   20.1840   60.6030   32.3520 C   0  0  0  0  0  0  0  0  0  0  0  0
   19.7990   59.9330   31.2600 C   0  0  0  0  0  0  0  0  0  0  0  0
   19.6080   58.6230   31.0320 N   0  0  0  0  0  0  0  0  0  0  0  0
   19.2040   58.4610   29.7670 C   0  0  0  0  0  0  0  0  0  0  0  0
  1  2  2  0  0  0  0
  1  4  1  0  0  0  0
  1  3  1  0  0  0  0
  3 20  1  0  0  0  0
  4  6  1  0  0  0  0
  4  7  1  0  0  0  0
  4  5  1  0  0  0  0
  7 10  1  0  0  0  0
  7  9  1  0  0  0  0
  7  8  1  0  0  0  0
 10 13  1  0  0  0  0
 10 11  1  0  0  0  0
 10 12  1  0  0  0  0
 13 17  1  0  0  0  0
 13 14  1  0  0  0  0
 13 15  1  0  0  0  0
 16 17  1  0  0  0  0
 17 19  1  0  0  0  0
 17 18  1  0  0  0  0
 20 21  1  0  0  0  0
 20 24  1  1  0  0  0
 21 22  2  0  0  0  0
 21 23  1  0  0  0  0
 24 25  1  0  0  0  0
 25 33  2  0  0  0  0
 25 26  1  0  0  0  0
 26 27  1  6  0  0  0
 26 31  1  0  0  0  0
 27 28  2  0  0  0  0
 28 29  1  0  0  0  0
 29 30  2  0  0  0  0
 30 31  1  0  0  0  0
 31 32  2  0  0  0  0
 32 33  1  0  0  0  0
M  END
>  <COMPND>
    UNNAMED

>  <AUTHOR>
    GENERATED BY OPEN BABEL 2.4.90

>  <MASTER>
        0    0    0    0    0    0    0    0   33    0   33    0

