__1zoa_A_rec_3kx3_140_lig_min.pdb
 OpenBabel10181913013D

 22 21  0  0  0  0  0  0  0  0999 V2000
   16.2330   55.4490   23.8350 C   0  0  0  0  0  0  0  0  0  0  0  0
   17.0940   54.3530   23.2360 C   0  0  0  0  0  0  0  0  0  0  0  0
   17.4100   54.5650   21.7730 C   0  0  0  0  0  0  0  0  0  0  0  0
   17.8950   53.3130   21.0610 C   0  0  0  0  0  0  0  0  0  0  0  0
   19.3230   52.9980   21.4180 C   0  0  0  0  0  0  0  0  0  0  0  0
   19.9040   52.2280   20.2240 C   0  0  0  0  0  0  0  0  0  0  0  0
   20.4870   50.9270   20.7430 C   0  0  0  0  0  0  0  0  0  0  0  0
   20.5560   49.8980   19.6410 C   0  0  0  0  0  0  0  0  0  0  0  0
   22.0340   49.6780   19.4320 C   0  0  0  0  0  0  0  0  0  0  0  0
   22.4090   48.8170   18.1950 C   0  0  0  0  0  0  0  0  0  0  0  0
   23.8160   48.3070   18.4770 C   0  0  0  0  0  0  0  0  0  0  0  0
   24.1420   46.9430   17.8190 C   0  0  0  0  0  0  0  0  0  0  0  0
   24.6190   46.0220   18.8890 C   0  0  0  0  0  0  0  0  0  0  0  0
   16.4460   55.4010   25.3660 C   0  0  0  0  0  0  0  0  0  0  0  0
   15.7770   56.5700   26.1010 C   0  0  0  0  0  0  0  0  0  0  0  0
   17.9610   57.6450   26.3110 N   0  0  0  0  0  0  0  0  0  0  0  0
   16.6900   57.7590   25.9650 C   0  0  0  0  0  0  0  0  0  0  0  0
   16.3030   58.8120   25.4870 O   0  0  0  0  0  0  0  0  0  0  0  0
   18.8850   58.7710   26.1660 C   0  0  0  0  0  0  0  0  0  0  0  0
   20.2260   58.3600   26.7240 C   0  0  0  0  0  0  0  0  0  0  0  0
   20.4750   57.1780   26.9180 O   0  0  0  0  0  0  0  0  0  0  0  0
   21.0300   59.2580   27.0400 O   0  0  0  0  0  0  0  0  0  0  0  0
  1  2  1  0  0  0  0
  1 14  1  0  0  0  0
  2  3  1  0  0  0  0
  3  4  1  0  0  0  0
  4  5  1  0  0  0  0
  5  6  1  0  0  0  0
  6  7  1  0  0  0  0
  7  8  1  0  0  0  0
  8  9  1  0  0  0  0
  9 10  1  0  0  0  0
 10 11  1  0  0  0  0
 11 12  1  0  0  0  0
 12 13  1  0  0  0  0
 14 15  1  0  0  0  0
 15 17  1  0  0  0  0
 16 17  1  0  0  0  0
 16 19  1  0  0  0  0
 17 18  2  0  0  0  0
 19 20  1  0  0  0  0
 20 21  2  0  0  0  0
 20 22  1  0  0  0  0
M  END
>  <COMPND>
    UNNAMED

>  <AUTHOR>
    GENERATED BY OPEN BABEL 2.4.90

>  <MASTER>
        0    0    0    0    0    0    0    0   22    0   22    0

