__1zoa_A_rec_3cbd_140_lig_min.pdb
 OpenBabel10181913213D

 22 21  0  0  0  0  0  0  0  0999 V2000
   17.8180   56.0180   23.9310 C   0  0  0  0  0  0  0  0  0  0  0  0
   17.2490   54.6280   23.7910 C   0  0  0  0  0  0  0  0  0  0  0  0
   17.3920   54.2030   22.3820 C   0  0  0  0  0  0  0  0  0  0  0  0
   18.7710   53.6390   22.0930 C   0  0  0  0  0  0  0  0  0  0  0  0
   18.6660   52.7490   20.8980 C   0  0  0  0  0  0  0  0  0  0  0  0
   20.0280   52.3230   20.4220 C   0  0  0  0  0  0  0  0  0  0  0  0
   20.4180   50.8970   20.5240 C   0  0  0  0  0  0  0  0  0  0  0  0
   20.8780   50.1360   19.3480 C   0  0  0  0  0  0  0  0  0  0  0  0
   22.2390   49.6640   19.5720 C   0  0  0  0  0  0  0  0  0  0  0  0
   22.6410   48.7990   18.4180 C   0  0  0  0  0  0  0  0  0  0  0  0
   24.0370   48.3880   18.6110 C   0  0  0  0  0  0  0  0  0  0  0  0
   24.3130   47.0940   17.9340 C   0  0  0  0  0  0  0  0  0  0  0  0
   24.6080   46.0330   18.8880 C   0  0  0  0  0  0  0  0  0  0  0  0
   17.9040   56.4610   25.3770 C   0  0  0  0  0  0  0  0  0  0  0  0
   18.2750   57.9030   25.5120 C   0  0  0  0  0  0  0  0  0  0  0  0
   19.3820   59.6320   26.8790 N   0  0  0  0  0  0  0  0  0  0  0  0
   19.4860   58.3760   26.4120 C   0  0  0  0  0  0  0  0  0  0  0  0
   20.4440   57.5860   26.6680 O   0  0  0  0  0  0  0  0  0  0  0  0
   20.3820   60.2220   27.7820 C   0  0  0  0  0  0  0  0  0  0  0  0
   19.7330   60.8060   29.1210 C   0  0  0  0  0  0  0  0  0  0  0  0
   18.5300   61.1150   29.1520 O   0  0  0  0  0  0  0  0  0  0  0  0
   20.4620   60.9540   30.1310 O   0  0  0  0  0  0  0  0  0  0  0  0
  1  2  1  0  0  0  0
  1 14  1  0  0  0  0
  2  3  1  0  0  0  0
  3  4  1  0  0  0  0
  4  5  1  0  0  0  0
  5  6  1  0  0  0  0
  6  7  1  0  0  0  0
  7  8  1  0  0  0  0
  8  9  1  0  0  0  0
  9 10  1  0  0  0  0
 10 11  1  0  0  0  0
 11 12  1  0  0  0  0
 12 13  1  0  0  0  0
 14 15  1  0  0  0  0
 15 17  1  0  0  0  0
 16 17  1  0  0  0  0
 16 19  1  0  0  0  0
 17 18  2  0  0  0  0
 19 20  1  0  0  0  0
 20 21  2  0  0  0  0
 20 22  1  0  0  0  0
M  END
>  <COMPND>
    UNNAMED

>  <AUTHOR>
    GENERATED BY OPEN BABEL 2.4.90

>  <MASTER>
        0    0    0    0    0    0    0    0   22    0   22    0

