__3dgi_A_rec_5b2x_w0t_lig_min.pdb
 OpenBabel10181916193D

 36 37  0  0  1  0  0  0  0  0999 V2000
   16.2710   57.8130   27.1510 C   0  0  0  0  0  0  0  0  0  0  0  0
   16.7810   57.0160   28.0950 F   0  0  0  0  0  0  0  0  0  0  0  0
   15.2620   58.5060   27.6470 F   0  0  0  0  0  0  0  0  0  0  0  0
   17.3400   58.7920   26.6360 C   0  0  0  0  0  0  0  0  0  0  0  0
   17.1570   59.4270   25.5880 O   0  0  0  0  0  0  0  0  0  0  0  0
   18.4720   58.8340   27.3730 N   0  0  0  0  0  0  0  0  0  0  0  0
   19.6290   59.6790   26.9950 C   0  0  2  0  0  0  0  0  0  0  0  0
   20.9670   58.9810   27.3400 C   0  0  0  0  0  0  0  0  0  0  0  0
   20.9560   57.7350   27.3550 O   0  0  0  0  0  0  0  0  0  0  0  0
   21.9870   59.6940   27.5040 O   0  0  0  0  0  0  0  0  0  0  0  0
   19.4610   61.0600   27.6230 C   0  0  0  0  0  0  0  0  0  0  0  0
   19.1020   60.9780   29.1170 C   0  0  0  0  0  0  0  0  0  0  0  0
   19.5930   61.8310   30.0160 C   0  0  2  0  0  0  0  0  0  0  0  0
   20.4660   62.8410   29.8980 C   0  0  0  0  0  0  0  0  0  0  0  0
   20.8520   63.5850   31.0020 C   0  0  0  0  0  0  0  0  0  0  0  0
   20.3070   63.2410   32.2240 C   0  0  0  0  0  0  0  0  0  0  0  0
   19.4010   62.1800   32.3020 C   0  0  0  0  0  0  0  0  0  0  0  0
   19.0660   61.4980   31.2010 C   0  0  0  0  0  0  0  0  0  0  0  0
   18.2430   60.4580   31.0110 N   0  0  0  0  0  0  0  0  0  0  0  0
   18.2520   60.1410   29.7120 C   0  0  0  0  0  0  0  0  0  0  0  0
   15.6960   56.9800   26.0000 C   0  0  0  0  0  0  0  0  0  0  0  0
   14.7450   56.1720   26.4760 F   0  0  0  0  0  0  0  0  0  0  0  0
   15.1950   57.8440   25.1200 F   0  0  0  0  0  0  0  0  0  0  0  0
   16.7380   56.1000   25.3000 C   0  0  0  0  0  0  0  0  0  0  0  0
   17.1490   55.1610   26.1530 F   0  0  0  0  0  0  0  0  0  0  0  0
   17.7720   56.8340   24.8860 F   0  0  0  0  0  0  0  0  0  0  0  0
   16.0780   55.4640   24.0620 C   0  0  0  0  0  0  0  0  0  0  0  0
   15.0020   54.7680   24.4250 F   0  0  0  0  0  0  0  0  0  0  0  0
   15.6920   56.4390   23.2650 F   0  0  0  0  0  0  0  0  0  0  0  0
   17.0370   54.5660   23.2680 C   0  0  0  0  0  0  0  0  0  0  0  0
   17.0080   54.9760   21.9900 F   0  0  0  0  0  0  0  0  0  0  0  0
   18.2860   54.6350   23.7420 F   0  0  0  0  0  0  0  0  0  0  0  0
   16.4060   52.7300   24.6370 F   0  0  0  0  0  0  0  0  0  0  0  0
   16.5700   53.1090   23.3730 C   0  0  0  0  0  0  0  0  0  0  0  0
   15.4320   52.9920   22.6920 F   0  0  0  0  0  0  0  0  0  0  0  0
   17.5070   52.3200   22.8830 F   0  0  0  0  0  0  0  0  0  0  0  0
  1 21  1  0  0  0  0
  1  4  1  0  0  0  0
  1  3  1  0  0  0  0
  1  2  1  0  0  0  0
  4  5  2  0  0  0  0
  4  6  1  0  0  0  0
  6  7  1  0  0  0  0
  7  8  1  0  0  0  0
  7 11  1  1  0  0  0
  8  9  2  0  0  0  0
  8 10  1  0  0  0  0
 11 12  1  0  0  0  0
 12 20  2  0  0  0  0
 12 13  1  0  0  0  0
 13 14  1  1  0  0  0
 13 18  1  0  0  0  0
 14 15  2  0  0  0  0
 15 16  1  0  0  0  0
 16 17  2  0  0  0  0
 17 18  1  0  0  0  0
 18 19  2  0  0  0  0
 19 20  1  0  0  0  0
 21 24  1  0  0  0  0
 21 23  1  0  0  0  0
 21 22  1  0  0  0  0
 24 27  1  0  0  0  0
 24 26  1  0  0  0  0
 24 25  1  0  0  0  0
 27 30  1  0  0  0  0
 27 29  1  0  0  0  0
 27 28  1  0  0  0  0
 30 31  1  0  0  0  0
 30 34  1  0  0  0  0
 30 32  1  0  0  0  0
 33 34  1  0  0  0  0
 34 36  1  0  0  0  0
 34 35  1  0  0  0  0
M  END
>  <COMPND>
    UNNAMED

>  <AUTHOR>
    GENERATED BY OPEN BABEL 2.4.90

>  <MASTER>
        0    0    0    0    0    0    0    0   36    0   36    0

