__4dtz_A_rec_4du2_ldp_lig_docked.pdb
 OpenBabel10181919243D

 11 11  0  0  0  0  0  0  0  0999 V2000
   19.6800   52.2190   16.8480 C   0  0  0  0  0  0  0  0  0  0  0  0
   18.2100   54.0170   18.4810 C   0  0  0  0  0  0  0  0  0  0  0  0
   19.5930   53.5750   16.5030 C   0  0  0  0  0  0  0  0  0  0  0  0
   19.0380   51.7080   17.9750 C   0  0  0  0  0  0  0  0  0  0  0  0
   18.3150   52.6400   18.7800 C   0  0  0  0  0  0  0  0  0  0  0  0
   18.8540   54.5000   17.2710 C   0  0  0  0  0  0  0  0  0  0  0  0
   18.7690   55.8280   16.9790 O   0  0  0  0  0  0  0  0  0  0  0  0
   17.4910   54.9530   19.2030 O   0  0  0  0  0  0  0  0  0  0  0  0
   20.5090   51.3120   15.9200 C   0  0  0  0  0  0  0  0  0  0  0  0
   19.9430   51.3350   14.5260 C   0  0  0  0  0  0  0  0  0  0  0  0
   20.6220   50.2800   13.7670 N   0  0  0  0  0  0  0  0  0  0  0  0
  1  9  1  0  0  0  0
  1  3  2  0  0  0  0
  1  4  1  0  0  0  0
  2  6  2  0  0  0  0
  2  5  1  0  0  0  0
  2  8  1  0  0  0  0
  3  6  1  0  0  0  0
  4  5  2  0  0  0  0
  6  7  1  0  0  0  0
  9 10  1  0  0  0  0
 10 11  1  0  0  0  0
M  END
>  <MODEL>
      18

>  <COMPND>
    UNNAMED

>  <AUTHOR>
    GENERATED BY OPEN BABEL 2.4.90

>  <MASTER>
        0    0    0    0    0    0    0    0   11    0   11    0

