__4dtz_A_rec_4du2_ldp_lig_min.pdb
 OpenBabel10181916313D

 11 11  0  0  0  0  0  0  0  0999 V2000
   19.5170   52.0590   17.0180 C   0  0  0  0  0  0  0  0  0  0  0  0
   18.1220   53.9850   18.5690 C   0  0  0  0  0  0  0  0  0  0  0  0
   19.6460   53.4240   16.7290 C   0  0  0  0  0  0  0  0  0  0  0  0
   18.6930   51.6030   18.0470 C   0  0  0  0  0  0  0  0  0  0  0  0
   18.0130   52.5980   18.8130 C   0  0  0  0  0  0  0  0  0  0  0  0
   18.9540   54.4150   17.4560 C   0  0  0  0  0  0  0  0  0  0  0  0
   19.0760   55.7510   17.2190 O   0  0  0  0  0  0  0  0  0  0  0  0
   17.4570   54.9870   19.2520 O   0  0  0  0  0  0  0  0  0  0  0  0
   20.3180   51.0780   16.1420 C   0  0  0  0  0  0  0  0  0  0  0  0
   19.9320   51.2340   14.6960 C   0  0  0  0  0  0  0  0  0  0  0  0
   20.8110   50.3570   13.9170 N   0  0  0  0  0  0  0  0  0  0  0  0
  1  9  1  0  0  0  0
  1  3  2  0  0  0  0
  1  4  1  0  0  0  0
  2  6  2  0  0  0  0
  2  5  1  0  0  0  0
  2  8  1  0  0  0  0
  3  6  1  0  0  0  0
  4  5  2  0  0  0  0
  6  7  1  0  0  0  0
  9 10  1  0  0  0  0
 10 11  1  0  0  0  0
M  END
>  <COMPND>
    UNNAMED

>  <AUTHOR>
    GENERATED BY OPEN BABEL 2.4.90

>  <MASTER>
        0    0    0    0    0    0    0    0   11    0   11    0

