__4du2_B_rec_4dub_ldp_lig_docked.pdb
 OpenBabel10181921563D

 11 11  0  0  0  0  0  0  0  0999 V2000
   19.6710   51.9580   17.4280 C   0  0  0  0  0  0  0  0  0  0  0  0
   18.4050   53.9020   18.8120 C   0  0  0  0  0  0  0  0  0  0  0  0
   19.7990   53.3460   17.0810 C   0  0  0  0  0  0  0  0  0  0  0  0
   18.9280   51.5020   18.4580 C   0  0  0  0  0  0  0  0  0  0  0  0
   18.2920   52.5250   19.2000 C   0  0  0  0  0  0  0  0  0  0  0  0
   19.1740   54.3370   17.7690 C   0  0  0  0  0  0  0  0  0  0  0  0
   19.2930   55.6380   17.4540 O   0  0  0  0  0  0  0  0  0  0  0  0
   17.7140   54.9100   19.4760 O   0  0  0  0  0  0  0  0  0  0  0  0
   20.3010   50.8470   16.5700 C   0  0  0  0  0  0  0  0  0  0  0  0
   20.3050   51.2940   15.1270 C   0  0  0  0  0  0  0  0  0  0  0  0
   19.1910   50.3920   14.5900 N   0  0  0  0  0  0  0  0  0  0  0  0
  1  9  1  0  0  0  0
  1  3  2  0  0  0  0
  1  4  1  0  0  0  0
  2  6  2  0  0  0  0
  2  5  1  0  0  0  0
  2  8  1  0  0  0  0
  3  6  1  0  0  0  0
  4  5  2  0  0  0  0
  6  7  1  0  0  0  0
  9 10  1  0  0  0  0
 10 11  1  0  0  0  0
M  END
>  <MODEL>
       3

>  <COMPND>
    UNNAMED

>  <AUTHOR>
    GENERATED BY OPEN BABEL 2.4.90

>  <MASTER>
        0    0    0    0    0    0    0    0   11    0   11    0

