__4du2_B_rec_4du2_ldp_lig_min.pdb
 OpenBabel10181913423D

 11 11  0  0  0  0  0  0  0  0999 V2000
   19.6430   51.8670   17.3510 C   0  0  0  0  0  0  0  0  0  0  0  0
   18.3410   53.8720   18.8830 C   0  0  0  0  0  0  0  0  0  0  0  0
   19.8350   53.2220   17.0470 C   0  0  0  0  0  0  0  0  0  0  0  0
   18.8000   51.4610   18.3850 C   0  0  0  0  0  0  0  0  0  0  0  0
   18.1680   52.4930   19.1420 C   0  0  0  0  0  0  0  0  0  0  0  0
   19.1900   54.2510   17.7660 C   0  0  0  0  0  0  0  0  0  0  0  0
   19.3730   55.5780   17.5140 O   0  0  0  0  0  0  0  0  0  0  0  0
   17.7240   54.9100   19.5580 O   0  0  0  0  0  0  0  0  0  0  0  0
   20.3960   50.8410   16.4840 C   0  0  0  0  0  0  0  0  0  0  0  0
   20.1680   51.1240   15.0240 C   0  0  0  0  0  0  0  0  0  0  0  0
   21.0430   50.2230   14.2680 N   0  0  0  0  0  0  0  0  0  0  0  0
  1  9  1  0  0  0  0
  1  3  2  0  0  0  0
  1  4  1  0  0  0  0
  2  6  2  0  0  0  0
  2  5  1  0  0  0  0
  2  8  1  0  0  0  0
  3  6  1  0  0  0  0
  4  5  2  0  0  0  0
  6  7  1  0  0  0  0
  9 10  1  0  0  0  0
 10 11  1  0  0  0  0
M  END
>  <COMPND>
    UNNAMED

>  <AUTHOR>
    GENERATED BY OPEN BABEL 2.4.90

>  <MASTER>
        0    0    0    0    0    0    0    0   11    0   11    0

