__4duc_B_rec_4dtz_ldp_lig_min.pdb
 OpenBabel10181913193D

 11 11  0  0  0  0  0  0  0  0999 V2000
   19.7200   51.6400   17.1940 C   0  0  0  0  0  0  0  0  0  0  0  0
   19.4300   53.8930   18.9580 C   0  0  0  0  0  0  0  0  0  0  0  0
   19.8410   52.9470   16.6740 C   0  0  0  0  0  0  0  0  0  0  0  0
   19.5060   51.4850   18.5650 C   0  0  0  0  0  0  0  0  0  0  0  0
   19.3060   52.6080   19.4470 C   0  0  0  0  0  0  0  0  0  0  0  0
   19.6980   54.0400   17.5470 C   0  0  0  0  0  0  0  0  0  0  0  0
   19.8230   55.3350   17.0690 O   0  0  0  0  0  0  0  0  0  0  0  0
   19.3550   54.9810   19.7740 O   0  0  0  0  0  0  0  0  0  0  0  0
   19.8550   50.4420   16.2900 C   0  0  0  0  0  0  0  0  0  0  0  0
   18.5880   50.5350   15.3960 C   0  0  0  0  0  0  0  0  0  0  0  0
   18.9630   50.4630   14.0390 N   0  0  0  0  0  0  0  0  0  0  0  0
  1  9  1  0  0  0  0
  1  3  2  0  0  0  0
  1  4  1  0  0  0  0
  2  6  2  0  0  0  0
  2  5  1  0  0  0  0
  2  8  1  0  0  0  0
  3  6  1  0  0  0  0
  4  5  2  0  0  0  0
  6  7  1  0  0  0  0
  9 10  1  0  0  0  0
 10 11  1  0  0  0  0
M  END
>  <COMPND>
    UNNAMED

>  <AUTHOR>
    GENERATED BY OPEN BABEL 2.4.90

>  <MASTER>
        0    0    0    0    0    0    0    0   11    0   11    0

