__4dud_B_rec_4dtz_ldp_lig_min.pdb
 OpenBabel10181916213D

 11 11  0  0  0  0  0  0  0  0999 V2000
   19.9080   51.7390   17.0900 C   0  0  0  0  0  0  0  0  0  0  0  0
   18.9800   53.7820   18.8890 C   0  0  0  0  0  0  0  0  0  0  0  0
   20.0000   53.0950   16.7040 C   0  0  0  0  0  0  0  0  0  0  0  0
   19.4090   51.4380   18.3590 C   0  0  0  0  0  0  0  0  0  0  0  0
   18.8910   52.4520   19.2440 C   0  0  0  0  0  0  0  0  0  0  0  0
   19.5420   54.0840   17.5940 C   0  0  0  0  0  0  0  0  0  0  0  0
   19.6290   55.4230   17.2500 O   0  0  0  0  0  0  0  0  0  0  0  0
   18.6020   54.7780   19.7380 O   0  0  0  0  0  0  0  0  0  0  0  0
   20.3760   50.6480   16.1620 C   0  0  0  0  0  0  0  0  0  0  0  0
   19.2760   50.6260   15.0660 C   0  0  0  0  0  0  0  0  0  0  0  0
   19.8780   50.5010   13.7970 N   0  0  0  0  0  0  0  0  0  0  0  0
  1  9  1  0  0  0  0
  1  3  2  0  0  0  0
  1  4  1  0  0  0  0
  2  6  2  0  0  0  0
  2  5  1  0  0  0  0
  2  8  1  0  0  0  0
  3  6  1  0  0  0  0
  4  5  2  0  0  0  0
  6  7  1  0  0  0  0
  9 10  1  0  0  0  0
 10 11  1  0  0  0  0
M  END
>  <COMPND>
    UNNAMED

>  <AUTHOR>
    GENERATED BY OPEN BABEL 2.4.90

>  <MASTER>
        0    0    0    0    0    0    0    0   11    0   11    0

