__4h23_A_rec_4duf_sro_lig_min.pdb
 OpenBabel10181915463D

 13 14  0  0  1  0  0  0  0  0999 V2000
   19.0950   47.4220   18.8620 O   0  0  0  0  0  0  0  0  0  0  0  0
   19.2720   48.6850   18.3490 C   0  0  0  0  0  0  0  0  0  0  0  0
   19.4060   49.8120   19.1880 C   0  0  0  0  0  0  0  0  0  0  0  0
   19.5820   51.1060   18.6540 C   0  0  0  0  0  0  0  0  0  0  0  0
   19.6270   51.3340   17.2640 C   0  0  0  0  0  0  0  0  0  0  0  0
   19.7670   52.3830   16.4050 N   0  0  0  0  0  0  0  0  0  0  0  0
   19.7200   51.9420   15.0970 C   0  0  0  0  0  0  0  0  0  0  0  0
   19.5320   50.5700   15.0480 C   0  0  0  0  0  0  0  0  0  0  0  0
   19.4780   50.1250   16.4300 C   0  0  2  0  0  0  0  0  0  0  0  0
   19.3060   48.8400   16.9580 C   0  0  0  0  0  0  0  0  0  0  0  0
   19.3560   49.5510   13.9520 C   0  0  0  0  0  0  0  0  0  0  0  0
   19.2590   50.2820   12.6730 C   0  0  0  0  0  0  0  0  0  0  0  0
   19.8600   49.5870   11.5330 N   0  0  0  0  0  0  0  0  0  0  0  0
  1  2  1  0  0  0  0
  2 10  2  0  0  0  0
  2  3  1  0  0  0  0
  3  4  2  0  0  0  0
  4  5  1  0  0  0  0
  5  6  2  0  0  0  0
  5  9  1  0  0  0  0
  6  7  1  0  0  0  0
  7  8  2  0  0  0  0
  8 11  1  0  0  0  0
  8  9  1  0  0  0  0
  9 10  1  1  0  0  0
 11 12  1  0  0  0  0
 12 13  1  0  0  0  0
M  END
>  <COMPND>
    UNNAMED

>  <AUTHOR>
    GENERATED BY OPEN BABEL 2.4.90

>  <MASTER>
        0    0    0    0    0    0    0    0   13    0   13    0

