__4hgf_A_rec_5b2u_w06_lig_min.pdb
 OpenBabel10181916313D

 33 34  0  0  1  0  0  0  0  0999 V2000
   16.4650   58.4430   26.3250 C   0  0  0  0  0  0  0  0  0  0  0  0
   16.1830   59.4510   25.6880 O   0  0  0  0  0  0  0  0  0  0  0  0
   17.7050   58.1990   26.8460 N   0  0  0  0  0  0  0  0  0  0  0  0
   15.3290   57.3940   26.5090 C   0  0  0  0  0  0  0  0  0  0  0  0
   15.1460   57.1500   27.8110 F   0  0  0  0  0  0  0  0  0  0  0  0
   14.1860   57.8980   25.9300 F   0  0  0  0  0  0  0  0  0  0  0  0
   15.5670   56.0750   25.8050 C   0  0  0  0  0  0  0  0  0  0  0  0
   16.5670   55.4600   26.5200 F   0  0  0  0  0  0  0  0  0  0  0  0
   14.3860   55.3390   25.8990 F   0  0  0  0  0  0  0  0  0  0  0  0
   15.9850   56.2490   24.3100 C   0  0  0  0  0  0  0  0  0  0  0  0
   15.3140   57.3430   23.7260 F   0  0  0  0  0  0  0  0  0  0  0  0
   17.2260   56.5300   24.3940 F   0  0  0  0  0  0  0  0  0  0  0  0
   15.7380   54.9670   23.3910 C   0  0  0  0  0  0  0  0  0  0  0  0
   14.8010   54.7610   23.5980 F   0  0  0  0  0  0  0  0  0  0  0  0
   16.8510   54.0080   23.8430 F   0  0  0  0  0  0  0  0  0  0  0  0
   15.1040   56.1910   21.4800 F   0  0  0  0  0  0  0  0  0  0  0  0
   16.0520   55.4250   21.9730 C   0  0  0  0  0  0  0  0  0  0  0  0
   17.2330   56.0640   21.9000 F   0  0  0  0  0  0  0  0  0  0  0  0
   16.1630   54.3180   21.2150 F   0  0  0  0  0  0  0  0  0  0  0  0
   18.8550   59.1260   26.6040 C   0  0  2  0  0  0  0  0  0  0  0  0
   20.2160   58.3770   26.4640 C   0  0  0  0  0  0  0  0  0  0  0  0
   20.1710   57.1350   26.3700 O   0  0  0  0  0  0  0  0  0  0  0  0
   21.2680   59.0690   26.4120 O   0  0  0  0  0  0  0  0  0  0  0  0
   18.9410   60.2230   27.6450 C   0  0  0  0  0  0  0  0  0  0  0  0
   19.1990   59.6730   29.0660 C   0  0  0  0  0  0  0  0  0  0  0  0
   19.2980   60.4850   30.1190 C   0  0  2  0  0  0  0  0  0  0  0  0
   19.2230   61.8190   30.2190 C   0  0  0  0  0  0  0  0  0  0  0  0
   19.3670   62.4520   31.4480 C   0  0  0  0  0  0  0  0  0  0  0  0
   19.5770   61.6540   32.5630 C   0  0  0  0  0  0  0  0  0  0  0  0
   19.6480   60.2670   32.4090 C   0  0  0  0  0  0  0  0  0  0  0  0
   19.5120   59.7160   31.1980 C   0  0  0  0  0  0  0  0  0  0  0  0
   19.5390   58.4390   30.7850 N   0  0  0  0  0  0  0  0  0  0  0  0
   19.3340   58.4090   29.4630 C   0  0  0  0  0  0  0  0  0  0  0  0
  1  2  2  0  0  0  0
  1  4  1  0  0  0  0
  1  3  1  0  0  0  0
  3 20  1  0  0  0  0
  4  6  1  0  0  0  0
  4  7  1  0  0  0  0
  4  5  1  0  0  0  0
  7 10  1  0  0  0  0
  7  9  1  0  0  0  0
  7  8  1  0  0  0  0
 10 13  1  0  0  0  0
 10 11  1  0  0  0  0
 10 12  1  0  0  0  0
 13 17  1  0  0  0  0
 13 14  1  0  0  0  0
 13 15  1  0  0  0  0
 16 17  1  0  0  0  0
 17 19  1  0  0  0  0
 17 18  1  0  0  0  0
 20 21  1  0  0  0  0
 20 24  1  1  0  0  0
 21 22  2  0  0  0  0
 21 23  1  0  0  0  0
 24 25  1  0  0  0  0
 25 33  2  0  0  0  0
 25 26  1  0  0  0  0
 26 27  1  6  0  0  0
 26 31  1  0  0  0  0
 27 28  2  0  0  0  0
 28 29  1  0  0  0  0
 29 30  2  0  0  0  0
 30 31  1  0  0  0  0
 31 32  2  0  0  0  0
 32 33  1  0  0  0  0
M  END
>  <COMPND>
    UNNAMED

>  <AUTHOR>
    GENERATED BY OPEN BABEL 2.4.90

>  <MASTER>
        0    0    0    0    0    0    0    0   33    0   33    0

