__4kpb_A_rec_4du2_ldp_lig_min.pdb
 OpenBabel10181915553D

 11 11  0  0  0  0  0  0  0  0999 V2000
   19.3770   52.1570   16.6680 C   0  0  0  0  0  0  0  0  0  0  0  0
   19.1250   53.9320   18.8690 C   0  0  0  0  0  0  0  0  0  0  0  0
   19.7080   53.5110   16.5220 C   0  0  0  0  0  0  0  0  0  0  0  0
   18.8970   51.6450   17.8730 C   0  0  0  0  0  0  0  0  0  0  0  0
   18.7910   52.5620   18.9620 C   0  0  0  0  0  0  0  0  0  0  0  0
   19.5760   54.4340   17.5820 C   0  0  0  0  0  0  0  0  0  0  0  0
   19.9120   55.7510   17.4830 O   0  0  0  0  0  0  0  0  0  0  0  0
   19.0040   54.8690   19.8790 O   0  0  0  0  0  0  0  0  0  0  0  0
   19.5560   51.2560   15.4320 C   0  0  0  0  0  0  0  0  0  0  0  0
   19.2990   52.0390   14.1730 C   0  0  0  0  0  0  0  0  0  0  0  0
   19.7150   51.1960   13.0470 N   0  0  0  0  0  0  0  0  0  0  0  0
  1  9  1  0  0  0  0
  1  3  2  0  0  0  0
  1  4  1  0  0  0  0
  2  6  2  0  0  0  0
  2  5  1  0  0  0  0
  2  8  1  0  0  0  0
  3  6  1  0  0  0  0
  4  5  2  0  0  0  0
  6  7  1  0  0  0  0
  9 10  1  0  0  0  0
 10 11  1  0  0  0  0
M  END
>  <COMPND>
    UNNAMED

>  <AUTHOR>
    GENERATED BY OPEN BABEL 2.4.90

>  <MASTER>
        0    0    0    0    0    0    0    0   11    0   11    0

