__4kpb_A_rec_5b2v_w06_lig_min.pdb
 OpenBabel10181913403D

 33 34  0  0  1  0  0  0  0  0999 V2000
   17.5970   57.9610   25.7900 C   0  0  0  0  0  0  0  0  0  0  0  0
   17.3630   59.0200   25.2030 O   0  0  0  0  0  0  0  0  0  0  0  0
   18.7710   57.6620   26.3910 N   0  0  0  0  0  0  0  0  0  0  0  0
   16.5150   56.8680   25.8980 C   0  0  0  0  0  0  0  0  0  0  0  0
   16.9300   55.9320   26.8140 F   0  0  0  0  0  0  0  0  0  0  0  0
   15.4200   57.4500   26.3710 F   0  0  0  0  0  0  0  0  0  0  0  0
   16.1720   56.1790   24.5450 C   0  0  0  0  0  0  0  0  0  0  0  0
   15.8550   56.9110   24.0380 F   0  0  0  0  0  0  0  0  0  0  0  0
   15.2680   55.2920   24.9400 F   0  0  0  0  0  0  0  0  0  0  0  0
   17.4490   55.5260   24.0350 C   0  0  0  0  0  0  0  0  0  0  0  0
   18.3310   56.4610   23.6690 F   0  0  0  0  0  0  0  0  0  0  0  0
   17.9860   54.7510   24.9960 F   0  0  0  0  0  0  0  0  0  0  0  0
   17.1070   54.6290   22.8200 C   0  0  0  0  0  0  0  0  0  0  0  0
   16.6290   53.4630   23.2770 F   0  0  0  0  0  0  0  0  0  0  0  0
   16.1660   55.2240   22.0630 F   0  0  0  0  0  0  0  0  0  0  0  0
   19.3570   53.8880   22.7000 F   0  0  0  0  0  0  0  0  0  0  0  0
   18.3490   54.3590   21.9480 C   0  0  0  0  0  0  0  0  0  0  0  0
   18.0380   53.4560   21.0130 F   0  0  0  0  0  0  0  0  0  0  0  0
   18.7330   55.4860   21.3510 F   0  0  0  0  0  0  0  0  0  0  0  0
   19.8810   58.6300   26.4540 C   0  0  2  0  0  0  0  0  0  0  0  0
   21.0720   58.0270   27.2350 C   0  0  0  0  0  0  0  0  0  0  0  0
   21.0870   56.7850   27.3930 O   0  0  0  0  0  0  0  0  0  0  0  0
   21.9600   58.8140   27.6260 O   0  0  0  0  0  0  0  0  0  0  0  0
   19.2340   59.8640   27.0800 C   0  0  0  0  0  0  0  0  0  0  0  0
   18.9800   59.7050   28.5880 C   0  0  0  0  0  0  0  0  0  0  0  0
   19.0900   60.6680   29.4990 C   0  0  2  0  0  0  0  0  0  0  0  0
   19.4690   61.9480   29.4170 C   0  0  0  0  0  0  0  0  0  0  0  0
   19.5140   62.7430   30.5550 C   0  0  0  0  0  0  0  0  0  0  0  0
   19.1540   62.1740   31.7680 C   0  0  0  0  0  0  0  0  0  0  0  0
   18.7690   60.8370   31.7980 C   0  0  0  0  0  0  0  0  0  0  0  0
   18.7450   60.1190   30.6740 C   0  0  0  0  0  0  0  0  0  0  0  0
   18.4150   58.8440   30.4590 N   0  0  0  0  0  0  0  0  0  0  0  0
   18.5440   58.5890   29.1600 C   0  0  0  0  0  0  0  0  0  0  0  0
  1  2  2  0  0  0  0
  1  4  1  0  0  0  0
  1  3  1  0  0  0  0
  3 20  1  0  0  0  0
  4  7  1  0  0  0  0
  4  6  1  0  0  0  0
  4  5  1  0  0  0  0
  7 10  1  0  0  0  0
  7  8  1  0  0  0  0
  7  9  1  0  0  0  0
 10 13  1  0  0  0  0
 10 11  1  0  0  0  0
 10 12  1  0  0  0  0
 13 15  1  0  0  0  0
 13 17  1  0  0  0  0
 13 14  1  0  0  0  0
 16 17  1  0  0  0  0
 17 18  1  0  0  0  0
 17 19  1  0  0  0  0
 20 21  1  0  0  0  0
 20 24  1  1  0  0  0
 21 22  2  0  0  0  0
 21 23  1  0  0  0  0
 24 25  1  0  0  0  0
 25 33  2  0  0  0  0
 25 26  1  0  0  0  0
 26 27  1  1  0  0  0
 26 31  1  0  0  0  0
 27 28  2  0  0  0  0
 28 29  1  0  0  0  0
 29 30  2  0  0  0  0
 30 31  1  0  0  0  0
 31 32  2  0  0  0  0
 32 33  1  0  0  0  0
M  END
>  <COMPND>
    UNNAMED

>  <AUTHOR>
    GENERATED BY OPEN BABEL 2.4.90

>  <MASTER>
        0    0    0    0    0    0    0    0   33    0   33    0

