__4o4p_A_rec_4kew_1c6_lig_docked.pdb
 OpenBabel10181919133D

 23 25  0  0  0  0  0  0  0  0999 V2000
   17.8330   53.5080   20.9820 S   0  0  0  0  0  0  0  0  0  0  0  0
   17.5730   54.5210   22.2890 C   0  0  0  0  0  0  0  0  0  0  0  0
   18.2620   55.6560   22.6560 N   0  0  0  0  0  0  0  0  0  0  0  0
   17.6530   56.0870   23.8200 C   0  0  0  0  0  0  0  0  0  0  0  0
   16.5620   55.0940   24.0800 C   0  0  0  0  0  0  0  0  0  0  0  0
   16.5700   54.1690   23.1070 N   0  0  0  0  0  0  0  0  0  0  0  0
   17.7640   57.1370   24.7700 C   0  0  0  0  0  0  0  0  0  0  0  0
   16.8730   57.1900   25.8950 C   0  0  0  0  0  0  0  0  0  0  0  0
   15.8810   56.2470   26.1000 C   0  0  0  0  0  0  0  0  0  0  0  0
   15.7360   55.2130   25.1880 C   0  0  0  0  0  0  0  0  0  0  0  0
   16.8850   58.1530   26.8680 O   0  0  0  0  0  0  0  0  0  0  0  0
   17.4750   57.8840   28.1520 C   0  0  0  0  0  0  0  0  0  0  0  0
   19.5060   53.5240   20.7900 C   0  0  0  0  0  0  0  0  0  0  0  0
   20.0690   52.7800   19.5890 C   0  0  0  0  0  0  0  0  0  0  0  0
   20.6450   51.3930   19.6800 C   0  0  0  0  0  0  0  0  0  0  0  0
   20.6800   50.6270   20.9700 C   0  0  0  0  0  0  0  0  0  0  0  0
   21.1860   50.7690   18.4280 C   0  0  0  0  0  0  0  0  0  0  0  0
   21.1120   51.5890   17.1590 C   0  0  0  0  0  0  0  0  0  0  0  0
   21.6260   51.1160   15.8050 C   0  0  0  0  0  0  0  0  0  0  0  0
   20.5620   52.8770   17.2440 C   0  0  0  0  0  0  0  0  0  0  0  0
   20.0910   53.4160   18.3960 N   0  0  0  0  0  0  0  0  0  0  0  0
   21.7140   49.4920   18.4380 O   0  0  0  0  0  0  0  0  0  0  0  0
   20.8660   48.4020   18.0690 C   0  0  0  0  0  0  0  0  0  0  0  0
  1 13  1  0  0  0  0
  1  2  1  0  0  0  0
  2  6  1  0  0  0  0
  2  3  2  0  0  0  0
  3  4  1  0  0  0  0
  4  5  2  0  0  0  0
  4  7  1  0  0  0  0
  5  6  1  0  0  0  0
  5 10  1  0  0  0  0
  7  8  2  0  0  0  0
  8  9  1  0  0  0  0
  8 11  1  0  0  0  0
  9 10  2  0  0  0  0
 11 12  1  0  0  0  0
 13 14  1  0  0  0  0
 14 21  2  0  0  0  0
 14 15  1  0  0  0  0
 15 17  2  0  0  0  0
 15 16  1  0  0  0  0
 17 18  1  0  0  0  0
 17 22  1  0  0  0  0
 18 19  1  0  0  0  0
 18 20  2  0  0  0  0
 20 21  1  0  0  0  0
 22 23  1  0  0  0  0
M  END
>  <MODEL>
       2

>  <COMPND>
    UNNAMED

>  <AUTHOR>
    GENERATED BY OPEN BABEL 2.4.90

>  <MASTER>
        0    0    0    0    0    0    0    0   23    0   23    0

