__5b2v_B_rec_5b2v_w06_lig_min.pdb
 OpenBabel10181916243D

 33 34  0  0  1  0  0  0  0  0999 V2000
   17.0220   57.8080   26.4370 C   0  0  0  0  0  0  0  0  0  0  0  0
   16.6840   58.8980   25.9740 O   0  0  0  0  0  0  0  0  0  0  0  0
   18.2110   57.5670   27.0360 N   0  0  0  0  0  0  0  0  0  0  0  0
   16.0670   56.5990   26.3800 C   0  0  0  0  0  0  0  0  0  0  0  0
   16.6030   55.5830   27.1320 F   0  0  0  0  0  0  0  0  0  0  0  0
   14.9290   56.9770   26.9480 F   0  0  0  0  0  0  0  0  0  0  0  0
   15.7650   56.0970   24.9370 C   0  0  0  0  0  0  0  0  0  0  0  0
   15.4120   56.8770   24.5380 F   0  0  0  0  0  0  0  0  0  0  0  0
   14.9090   55.1160   25.1890 F   0  0  0  0  0  0  0  0  0  0  0  0
   17.0770   55.5930   24.3520 C   0  0  0  0  0  0  0  0  0  0  0  0
   17.8580   56.6240   24.0120 F   0  0  0  0  0  0  0  0  0  0  0  0
   17.7170   54.8220   25.2510 F   0  0  0  0  0  0  0  0  0  0  0  0
   16.7740   54.7330   23.1010 C   0  0  0  0  0  0  0  0  0  0  0  0
   16.4910   53.4870   23.5020 F   0  0  0  0  0  0  0  0  0  0  0  0
   15.7110   55.2370   22.4460 F   0  0  0  0  0  0  0  0  0  0  0  0
   19.1120   54.4470   22.8130 F   0  0  0  0  0  0  0  0  0  0  0  0
   17.9770   54.6920   22.1370 C   0  0  0  0  0  0  0  0  0  0  0  0
   17.7830   53.7230   21.2370 F   0  0  0  0  0  0  0  0  0  0  0  0
   18.0850   55.8570   21.5020 F   0  0  0  0  0  0  0  0  0  0  0  0
   19.2050   58.6340   27.2490 C   0  0  2  0  0  0  0  0  0  0  0  0
   20.6220   58.0270   27.3710 C   0  0  0  0  0  0  0  0  0  0  0  0
   20.7330   56.7880   27.2260 O   0  0  0  0  0  0  0  0  0  0  0  0
   21.5700   58.8170   27.5700 O   0  0  0  0  0  0  0  0  0  0  0  0
   18.6840   59.3550   28.4910 C   0  0  0  0  0  0  0  0  0  0  0  0
   19.2420   58.7700   29.7990 C   0  0  0  0  0  0  0  0  0  0  0  0
   19.7880   59.4690   30.7910 C   0  0  2  0  0  0  0  0  0  0  0  0
   20.0500   60.7730   30.9360 C   0  0  0  0  0  0  0  0  0  0  0  0
   20.6590   61.2430   32.0930 C   0  0  0  0  0  0  0  0  0  0  0  0
   20.9830   60.3270   33.0840 C   0  0  0  0  0  0  0  0  0  0  0  0
   20.6890   58.9820   32.8800 C   0  0  0  0  0  0  0  0  0  0  0  0
   20.1040   58.5850   31.7490 C   0  0  0  0  0  0  0  0  0  0  0  0
   19.7300   57.3720   31.3380 N   0  0  0  0  0  0  0  0  0  0  0  0
   19.1790   57.4870   30.1330 C   0  0  0  0  0  0  0  0  0  0  0  0
  1  2  2  0  0  0  0
  1  4  1  0  0  0  0
  1  3  1  0  0  0  0
  3 20  1  0  0  0  0
  4  7  1  0  0  0  0
  4  6  1  0  0  0  0
  4  5  1  0  0  0  0
  7 10  1  0  0  0  0
  7  8  1  0  0  0  0
  7  9  1  0  0  0  0
 10 13  1  0  0  0  0
 10 11  1  0  0  0  0
 10 12  1  0  0  0  0
 13 15  1  0  0  0  0
 13 17  1  0  0  0  0
 13 14  1  0  0  0  0
 16 17  1  0  0  0  0
 17 18  1  0  0  0  0
 17 19  1  0  0  0  0
 20 21  1  0  0  0  0
 20 24  1  1  0  0  0
 21 22  2  0  0  0  0
 21 23  1  0  0  0  0
 24 25  1  0  0  0  0
 25 33  2  0  0  0  0
 25 26  1  0  0  0  0
 26 27  1  6  0  0  0
 26 31  1  0  0  0  0
 27 28  2  0  0  0  0
 28 29  1  0  0  0  0
 29 30  2  0  0  0  0
 30 31  1  0  0  0  0
 31 32  2  0  0  0  0
 32 33  1  0  0  0  0
M  END
>  <COMPND>
    UNNAMED

>  <AUTHOR>
    GENERATED BY OPEN BABEL 2.4.90

>  <MASTER>
        0    0    0    0    0    0    0    0   33    0   33    0

