__5b2y_A_rec_5b2v_w06_lig_min.pdb
 OpenBabel10181912353D

 33 34  0  0  1  0  0  0  0  0999 V2000
   17.2820   57.6020   26.0830 C   0  0  0  0  0  0  0  0  0  0  0  0
   17.2390   58.8030   25.8080 O   0  0  0  0  0  0  0  0  0  0  0  0
   18.1160   57.0560   26.9970 N   0  0  0  0  0  0  0  0  0  0  0  0
   16.3370   56.6020   25.3870 C   0  0  0  0  0  0  0  0  0  0  0  0
   16.4620   55.3820   26.0040 F   0  0  0  0  0  0  0  0  0  0  0  0
   15.0990   57.0380   25.5820 F   0  0  0  0  0  0  0  0  0  0  0  0
   16.5830   56.4570   23.8560 C   0  0  0  0  0  0  0  0  0  0  0  0
   16.4740   57.3490   23.5650 F   0  0  0  0  0  0  0  0  0  0  0  0
   15.6230   55.6010   23.5310 F   0  0  0  0  0  0  0  0  0  0  0  0
   17.9760   55.8690   23.6780 C   0  0  0  0  0  0  0  0  0  0  0  0
   18.9030   56.8150   23.8630 F   0  0  0  0  0  0  0  0  0  0  0  0
   18.1710   54.8690   24.5570 F   0  0  0  0  0  0  0  0  0  0  0  0
   18.1000   55.2910   22.2470 C   0  0  0  0  0  0  0  0  0  0  0  0
   17.6450   54.0310   22.2590 F   0  0  0  0  0  0  0  0  0  0  0  0
   17.3560   56.0200   21.3930 F   0  0  0  0  0  0  0  0  0  0  0  0
   20.3680   54.7540   22.6860 F   0  0  0  0  0  0  0  0  0  0  0  0
   19.5620   55.2960   21.7580 C   0  0  0  0  0  0  0  0  0  0  0  0
   19.6480   54.5830   20.6310 F   0  0  0  0  0  0  0  0  0  0  0  0
   19.9510   56.5450   21.5120 F   0  0  0  0  0  0  0  0  0  0  0  0
   19.0250   57.8830   27.8130 C   0  0  2  0  0  0  0  0  0  0  0  0
   20.4880   57.6720   27.3610 C   0  0  0  0  0  0  0  0  0  0  0  0
   20.7890   56.5530   26.8840 O   0  0  0  0  0  0  0  0  0  0  0  0
   21.2670   58.6430   27.4660 O   0  0  0  0  0  0  0  0  0  0  0  0
   18.7030   57.4500   29.2420 C   0  0  0  0  0  0  0  0  0  0  0  0
   19.4160   58.3060   30.3000 C   0  0  0  0  0  0  0  0  0  0  0  0
   19.4210   59.6360   30.3470 C   0  0  2  0  0  0  0  0  0  0  0  0
   18.9020   60.5690   29.5400 C   0  0  0  0  0  0  0  0  0  0  0  0
   19.0780   61.9180   29.8200 C   0  0  0  0  0  0  0  0  0  0  0  0
   19.8000   62.2650   30.9530 C   0  0  0  0  0  0  0  0  0  0  0  0
   20.3190   61.2550   31.7570 C   0  0  0  0  0  0  0  0  0  0  0  0
   20.1210   59.9740   31.4410 C   0  0  0  0  0  0  0  0  0  0  0  0
   20.5130   58.8540   32.0500 N   0  0  0  0  0  0  0  0  0  0  0  0
   20.0610   57.8150   31.3520 C   0  0  0  0  0  0  0  0  0  0  0  0
  1  2  2  0  0  0  0
  1  4  1  0  0  0  0
  1  3  1  0  0  0  0
  3 20  1  0  0  0  0
  4  7  1  0  0  0  0
  4  6  1  0  0  0  0
  4  5  1  0  0  0  0
  7 10  1  0  0  0  0
  7  8  1  0  0  0  0
  7  9  1  0  0  0  0
 10 13  1  0  0  0  0
 10 11  1  0  0  0  0
 10 12  1  0  0  0  0
 13 15  1  0  0  0  0
 13 17  1  0  0  0  0
 13 14  1  0  0  0  0
 16 17  1  0  0  0  0
 17 18  1  0  0  0  0
 17 19  1  0  0  0  0
 20 21  1  0  0  0  0
 20 24  1  1  0  0  0
 21 22  2  0  0  0  0
 21 23  1  0  0  0  0
 24 25  1  0  0  0  0
 25 33  2  0  0  0  0
 25 26  1  0  0  0  0
 26 27  1  6  0  0  0
 26 31  1  0  0  0  0
 27 28  2  0  0  0  0
 28 29  1  0  0  0  0
 29 30  2  0  0  0  0
 30 31  1  0  0  0  0
 31 32  2  0  0  0  0
 32 33  1  0  0  0  0
M  END
>  <COMPND>
    UNNAMED

>  <AUTHOR>
    GENERATED BY OPEN BABEL 2.4.90

>  <MASTER>
        0    0    0    0    0    0    0    0   33    0   33    0

