__5b2y_A_rec_4dtz_ldp_lig_min.pdb
 OpenBabel10181916093D

 11 11  0  0  0  0  0  0  0  0999 V2000
   19.4120   51.5120   17.0240 C   0  0  0  0  0  0  0  0  0  0  0  0
   18.8970   53.6190   18.9130 C   0  0  0  0  0  0  0  0  0  0  0  0
   19.7250   52.8460   16.6770 C   0  0  0  0  0  0  0  0  0  0  0  0
   18.9020   51.2570   18.2980 C   0  0  0  0  0  0  0  0  0  0  0  0
   18.5910   52.3120   19.2310 C   0  0  0  0  0  0  0  0  0  0  0  0
   19.4680   53.8660   17.6110 C   0  0  0  0  0  0  0  0  0  0  0  0
   19.7760   55.1820   17.3050 O   0  0  0  0  0  0  0  0  0  0  0  0
   18.7200   54.6340   19.8040 O   0  0  0  0  0  0  0  0  0  0  0  0
   19.6600   50.3910   16.0480 C   0  0  0  0  0  0  0  0  0  0  0  0
   19.7280   51.1260   14.6820 C   0  0  0  0  0  0  0  0  0  0  0  0
   19.6300   50.1860   13.6360 N   0  0  0  0  0  0  0  0  0  0  0  0
  1  9  1  0  0  0  0
  1  3  2  0  0  0  0
  1  4  1  0  0  0  0
  2  6  2  0  0  0  0
  2  5  1  0  0  0  0
  2  8  1  0  0  0  0
  3  6  1  0  0  0  0
  4  5  2  0  0  0  0
  6  7  1  0  0  0  0
  9 10  1  0  0  0  0
 10 11  1  0  0  0  0
M  END
>  <COMPND>
    UNNAMED

>  <AUTHOR>
    GENERATED BY OPEN BABEL 2.4.90

>  <MASTER>
        0    0    0    0    0    0    0    0   11    0   11    0

