__1e8g_A_rec_1e8h_adp_lig_min.pdb
 OpenBabel10181914293D

 27 29  0  0  1  0  0  0  0  0999 V2000
   96.5400   48.5760   72.3590 C   0  0  1  0  0  0  0  0  0  0  0  0
   95.5070   47.7820   71.7390 O   0  0  0  0  0  0  0  0  0  0  0  0
   95.7900   49.3640   73.4360 C   0  0  1  0  0  0  0  0  0  0  0  0
   96.4940   50.5710   73.8050 O   0  0  0  0  0  0  0  0  0  0  0  0
   94.5370   49.7240   72.5800 C   0  0  1  0  0  0  0  0  0  0  0  0
   95.0430   50.6540   71.6010 O   0  0  0  0  0  0  0  0  0  0  0  0
   94.2970   48.4010   71.8310 C   0  0  2  0  0  0  0  0  0  0  0  0
   93.2980   47.5130   72.3720 N   0  0  0  0  0  0  0  0  0  0  0  0
   93.4280   46.6430   73.4000 C   0  0  0  0  0  0  0  0  0  0  0  0
   92.4650   45.8210   73.5760 N   0  0  0  0  0  0  0  0  0  0  0  0
   91.6300   46.1180   72.6180 C   0  0  0  0  0  0  0  0  0  0  0  0
   90.4350   45.5520   72.3060 C   0  0  0  0  0  0  0  0  0  0  0  0
   89.8650   44.5600   72.9340 N   0  0  0  0  0  0  0  0  0  0  0  0
   89.7500   46.0700   71.2630 N   0  0  0  0  0  0  0  0  0  0  0  0
   90.2840   47.1240   70.5610 C   0  0  0  0  0  0  0  0  0  0  0  0
   91.4480   47.7020   70.7890 N   0  0  0  0  0  0  0  0  0  0  0  0
   92.0660   47.1620   71.8330 C   0  0  0  0  0  0  0  0  0  0  0  0
   97.6120   47.5960   72.8300 C   0  0  0  0  0  0  0  0  0  0  0  0
   97.3820   47.1660   74.1540 O   0  0  0  0  0  0  0  0  0  0  0  0
   98.2750   46.4760   75.2420 P   0  0  1  0  0  0  0  0  0  0  0  0
   98.4340   47.4680   76.3380 O   0  0  0  0  0  0  0  0  0  0  0  0
   97.7720   45.2320   75.8530 O   0  0  0  0  0  0  0  0  0  0  0  0
   99.7000   46.2700   74.5100 O   0  0  0  0  0  0  0  0  0  0  0  0
  100.7650   45.0530   74.5550 P   0  0  0  0  0  0  0  0  0  0  0  0
  101.4370   45.3300   73.1290 O   0  0  0  0  0  0  0  0  0  0  0  0
  100.1130   43.7330   74.6180 O   0  0  0  0  0  0  0  0  0  0  0  0
  101.5880   45.2510   75.7660 O   0  0  0  0  0  0  0  0  0  0  0  0
  1  2  1  0  0  0  0
  1  3  1  0  0  0  0
  1 18  1  1  0  0  0
  2  7  1  0  0  0  0
  3  5  1  0  0  0  0
  3  4  1  6  0  0  0
  5  6  1  6  0  0  0
  5  7  1  0  0  0  0
  7  8  1  1  0  0  0
  8 17  1  0  0  0  0
  8  9  1  0  0  0  0
  9 10  2  0  0  0  0
 10 11  1  0  0  0  0
 11 17  2  0  0  0  0
 11 12  1  0  0  0  0
 12 14  2  0  0  0  0
 12 13  1  0  0  0  0
 14 15  1  0  0  0  0
 15 16  2  0  0  0  0
 16 17  1  0  0  0  0
 18 19  1  0  0  0  0
 19 20  1  0  0  0  0
 20 23  1  0  0  0  0
 20 22  2  1  0  0  0
 20 21  1  0  0  0  0
 23 24  1  0  0  0  0
 24 25  2  0  0  0  0
 24 26  1  0  0  0  0
 24 27  1  0  0  0  0
M  END
>  <COMPND>
    UNNAMED

>  <AUTHOR>
    GENERATED BY OPEN BABEL 2.4.90

>  <MASTER>
        0    0    0    0    0    0    0    0   27    0   27    0

