__1e8g_A_rec_1e8g_fcr_lig_docked.pdb
 OpenBabel10181914293D

 11 11  0  0  0  0  0  0  0  0999 V2000
  110.2930   47.0700   70.2150 C   0  0  0  0  0  0  0  0  0  0  0  0
  109.6650   48.1260   70.8850 C   0  0  0  0  0  0  0  0  0  0  0  0
  108.3540   48.4890   70.5130 C   0  0  0  0  0  0  0  0  0  0  0  0
  107.7530   47.8160   69.4630 C   0  0  0  0  0  0  0  0  0  0  0  0
  108.3580   46.7750   68.7750 C   0  0  0  0  0  0  0  0  0  0  0  0
  109.6520   46.4100   69.1610 C   0  0  0  0  0  0  0  0  0  0  0  0
  106.5070   48.2440   69.1360 O   0  0  0  0  0  0  0  0  0  0  0  0
  111.6690   46.7190   70.5690 C   0  0  0  0  0  0  0  0  0  0  0  0
  111.9300   45.7140   71.3470 F   0  0  0  0  0  0  0  0  0  0  0  0
  112.3050   46.4470   69.3790 F   0  0  0  0  0  0  0  0  0  0  0  0
  112.2630   47.8110   71.0140 F   0  0  0  0  0  0  0  0  0  0  0  0
  1  6  2  0  0  0  0
  1  8  1  0  0  0  0
  1  2  1  0  0  0  0
  2  3  2  0  0  0  0
  3  4  1  0  0  0  0
  4  5  2  0  0  0  0
  4  7  1  0  0  0  0
  5  6  1  0  0  0  0
  8 10  1  0  0  0  0
  8 11  1  0  0  0  0
  8  9  1  0  0  0  0
M  END
>  <MODEL>
       1

>  <COMPND>
    UNNAMED

>  <AUTHOR>
    GENERATED BY OPEN BABEL 2.4.90

>  <MASTER>
        0    0    0    0    0    0    0    0   11    0   11    0

