__1iq1_C_rec_4u58_3c6_lig_min.pdb
 OpenBabel10191910503D

 24 25  0  0  1  0  0  0  0  0999 V2000
   -4.7360   41.5170  -16.4780 C   0  0  0  0  0  0  0  0  0  0  0  0
   -4.2580   41.7180  -17.5420 O   0  0  0  0  0  0  0  0  0  0  0  0
   -4.8160   42.5850  -15.5070 N   0  0  0  0  0  0  0  0  0  0  0  0
   -6.1470   37.5720  -15.5090 C   0  0  0  0  0  0  0  0  0  0  0  0
   -6.6930   38.6740  -14.8550 C   0  0  0  0  0  0  0  0  0  0  0  0
   -6.2420   39.9520  -15.1610 C   0  0  0  0  0  0  0  0  0  0  0  0
   -5.1530   37.7460  -16.4580 C   0  0  0  0  0  0  0  0  0  0  0  0
   -4.7020   39.0260  -16.7590 C   0  0  0  0  0  0  0  0  0  0  0  0
   -5.2370   40.1240  -16.1080 C   0  0  0  0  0  0  0  0  0  0  0  0
   -7.9360   35.7920  -15.5130 C   0  0  0  0  0  0  0  0  0  0  0  0
   -8.3760   34.5070  -15.2190 C   0  0  0  0  0  0  0  0  0  0  0  0
   -7.4740   33.6500  -14.6020 C   0  0  0  0  0  0  0  0  0  0  0  0
   -6.2440   34.0310  -14.3020 N   0  0  0  0  0  0  0  0  0  0  0  0
   -5.8110   35.2460  -14.5690 C   0  0  0  0  0  0  0  0  0  0  0  0
   -6.6360   36.1640  -15.1940 C   0  0  0  0  0  0  0  0  0  0  0  0
   -4.3230   43.8970  -15.8520 C   0  0  2  0  0  0  0  0  0  0  0  0
   -3.2780   44.3190  -14.8160 C   0  0  0  0  0  0  0  0  0  0  0  0
   -3.3250   43.8760  -13.7160 O   0  0  0  0  0  0  0  0  0  0  0  0
   -2.2350   45.2710  -15.1620 N   0  0  0  0  0  0  0  0  0  0  0  0
   -5.4840   44.8780  -15.8470 C   0  0  0  0  0  0  0  0  0  0  0  0
   -6.6350   44.3720  -14.9760 C   0  0  0  0  0  0  0  0  0  0  0  0
   -7.8960   45.2250  -15.0820 C   0  0  0  0  0  0  0  0  0  0  0  0
   -8.9710   44.8030  -14.0780 C   0  0  0  0  0  0  0  0  0  0  0  0
   -9.0050   45.7400  -12.9630 N   0  0  0  0  0  0  0  0  0  0  0  0
  1  3  1  0  0  0  0
  1  9  1  0  0  0  0
  1  2  2  0  0  0  0
  3 16  1  0  0  0  0
  4  7  2  0  0  0  0
  4 15  1  0  0  0  0
  4  5  1  0  0  0  0
  5  6  2  0  0  0  0
  6  9  1  0  0  0  0
  7  8  1  0  0  0  0
  8  9  2  0  0  0  0
 10 11  2  0  0  0  0
 10 15  1  0  0  0  0
 11 12  1  0  0  0  0
 12 13  2  0  0  0  0
 13 14  1  0  0  0  0
 14 15  2  0  0  0  0
 16 20  1  1  0  0  0
 16 17  1  0  0  0  0
 17 19  1  0  0  0  0
 17 18  2  0  0  0  0
 20 21  1  0  0  0  0
 21 22  1  0  0  0  0
 22 23  1  0  0  0  0
 23 24  1  0  0  0  0
M  END
>  <COMPND>
    UNNAMED

>  <AUTHOR>
    GENERATED BY OPEN BABEL 2.4.90

>  <MASTER>
        0    0    0    0    0    0    0    0   24    0   24    0

