__4u5o_A_rec_4u54_3c5_lig_min.pdb
 OpenBabel10191911013D

 15 16  0  0  0  0  0  0  0  0999 V2000
   -1.4520   36.0190  -12.4690 C   0  0  0  0  0  0  0  0  0  0  0  0
   -0.9880   34.7460  -12.7960 C   0  0  0  0  0  0  0  0  0  0  0  0
   -0.3400   33.9630  -11.8500 C   0  0  0  0  0  0  0  0  0  0  0  0
   -0.1530   34.4610  -10.5620 C   0  0  0  0  0  0  0  0  0  0  0  0
   -0.6110   35.7330  -10.2290 C   0  0  0  0  0  0  0  0  0  0  0  0
   -1.2600   36.5190  -11.1800 C   0  0  0  0  0  0  0  0  0  0  0  0
    0.1390   32.5580  -12.2300 C   0  0  0  0  0  0  0  0  0  0  0  0
    1.3870   32.0760  -11.8410 C   0  0  0  0  0  0  0  0  0  0  0  0
    1.7820   30.8510  -12.1710 N   0  0  0  0  0  0  0  0  0  0  0  0
    1.0110   30.0450  -12.8810 C   0  0  0  0  0  0  0  0  0  0  0  0
   -0.2470   30.4480  -13.3020 C   0  0  0  0  0  0  0  0  0  0  0  0
   -0.6990   31.7250  -12.9740 C   0  0  0  0  0  0  0  0  0  0  0  0
   -2.1500   36.8560  -13.5460 C   0  0  0  0  0  0  0  0  0  0  0  0
   -2.1290   38.9140  -14.7840 C   0  0  0  0  0  0  0  0  0  0  0  0
   -1.6950   38.2420  -13.5620 N   0  0  0  0  0  0  0  0  0  0  0  0
  1 13  1  0  0  0  0
  1  2  2  0  0  0  0
  1  6  1  0  0  0  0
  2  3  1  0  0  0  0
  3  7  1  0  0  0  0
  3  4  2  0  0  0  0
  4  5  1  0  0  0  0
  5  6  2  0  0  0  0
  7 12  2  0  0  0  0
  7  8  1  0  0  0  0
  8  9  2  0  0  0  0
  9 10  1  0  0  0  0
 10 11  2  0  0  0  0
 11 12  1  0  0  0  0
 13 15  1  0  0  0  0
 14 15  1  0  0  0  0
M  END
>  <COMPND>
    UNNAMED

>  <AUTHOR>
    GENERATED BY OPEN BABEL 2.4.90

>  <MASTER>
        0    0    0    0    0    0    0    0   15    0   15    0

