__4u5o_A_rec_4u58_3c6_lig_min.pdb
 OpenBabel10191910313D

 24 25  0  0  1  0  0  0  0  0999 V2000
   -1.9400   37.7580  -11.0140 C   0  0  0  0  0  0  0  0  0  0  0  0
   -2.3140   38.0200   -9.9220 O   0  0  0  0  0  0  0  0  0  0  0  0
   -2.0540   38.7360  -12.0720 N   0  0  0  0  0  0  0  0  0  0  0  0
   -0.4010   33.8470  -11.9220 C   0  0  0  0  0  0  0  0  0  0  0  0
   -0.1790   34.3930  -10.6600 C   0  0  0  0  0  0  0  0  0  0  0  0
   -0.6710   35.6570  -10.3580 C   0  0  0  0  0  0  0  0  0  0  0  0
   -1.1050   34.5600  -12.8770 C   0  0  0  0  0  0  0  0  0  0  0  0
   -1.5930   35.8260  -12.5730 C   0  0  0  0  0  0  0  0  0  0  0  0
   -1.3710   36.3760  -11.3230 C   0  0  0  0  0  0  0  0  0  0  0  0
   -0.6660   31.5790  -12.9970 C   0  0  0  0  0  0  0  0  0  0  0  0
   -0.1820   30.3130  -13.3040 C   0  0  0  0  0  0  0  0  0  0  0  0
    1.0880   29.9870  -12.8480 C   0  0  0  0  0  0  0  0  0  0  0  0
    1.8170   30.8400  -12.1480 N   0  0  0  0  0  0  0  0  0  0  0  0
    1.3730   32.0420  -11.8430 C   0  0  0  0  0  0  0  0  0  0  0  0
    0.1230   32.4580  -12.2660 C   0  0  0  0  0  0  0  0  0  0  0  0
   -2.6120   40.0360  -11.7810 C   0  0  2  0  0  0  0  0  0  0  0  0
   -4.1130   40.0040  -12.0750 C   0  0  0  0  0  0  0  0  0  0  0  0
   -4.8890   39.9430  -11.1780 O   0  0  0  0  0  0  0  0  0  0  0  0
   -4.6010   40.0310  -13.4450 N   0  0  0  0  0  0  0  0  0  0  0  0
   -1.9320   41.0730  -12.6600 C   0  0  0  0  0  0  0  0  0  0  0  0
   -0.4090   40.9570  -12.5790 C   0  0  0  0  0  0  0  0  0  0  0  0
    0.2940   42.3010  -12.4100 C   0  0  0  0  0  0  0  0  0  0  0  0
   -0.5520   43.3070  -11.6270 C   0  0  0  0  0  0  0  0  0  0  0  0
    0.2860   44.0310  -10.6810 N   0  0  0  0  0  0  0  0  0  0  0  0
  1  3  1  0  0  0  0
  1  9  1  0  0  0  0
  1  2  2  0  0  0  0
  3 16  1  0  0  0  0
  4  7  2  0  0  0  0
  4 15  1  0  0  0  0
  4  5  1  0  0  0  0
  5  6  2  0  0  0  0
  6  9  1  0  0  0  0
  7  8  1  0  0  0  0
  8  9  2  0  0  0  0
 10 11  2  0  0  0  0
 10 15  1  0  0  0  0
 11 12  1  0  0  0  0
 12 13  2  0  0  0  0
 13 14  1  0  0  0  0
 14 15  2  0  0  0  0
 16 20  1  6  0  0  0
 16 17  1  0  0  0  0
 17 19  1  0  0  0  0
 17 18  2  0  0  0  0
 20 21  1  0  0  0  0
 21 22  1  0  0  0  0
 22 23  1  0  0  0  0
 23 24  1  0  0  0  0
M  END
>  <COMPND>
    UNNAMED

>  <AUTHOR>
    GENERATED BY OPEN BABEL 2.4.90

>  <MASTER>
        0    0    0    0    0    0    0    0   24    0   24    0

