__4u5u_A_rec_4u5o_3d5_lig_min.pdb
 OpenBabel10191910373D

 23 24  0  0  1  0  0  0  0  0999 V2000
   -3.0870   37.6130   -9.9680 N   0  0  0  0  0  0  0  0  0  0  0  0
   -2.0070   37.6550  -10.9650 C   0  0  0  0  0  0  0  0  0  0  0  0
   -0.4660   33.9160  -11.8590 C   0  0  0  0  0  0  0  0  0  0  0  0
   -0.2290   34.4670  -10.6030 C   0  0  0  0  0  0  0  0  0  0  0  0
   -0.7390   35.7250  -10.2910 C   0  0  0  0  0  0  0  0  0  0  0  0
   -1.2680   34.5790  -12.7750 C   0  0  0  0  0  0  0  0  0  0  0  0
   -1.7530   35.8420  -12.4830 C   0  0  0  0  0  0  0  0  0  0  0  0
   -1.4990   36.4040  -11.2390 C   0  0  0  0  0  0  0  0  0  0  0  0
   -0.7830   31.8030  -12.9470 C   0  0  0  0  0  0  0  0  0  0  0  0
   -0.3440   30.5320  -13.2900 C   0  0  0  0  0  0  0  0  0  0  0  0
    0.9270   30.1250  -12.9040 C   0  0  0  0  0  0  0  0  0  0  0  0
    1.7290   30.9950  -12.1510 N   0  0  0  0  0  0  0  0  0  0  0  0
    1.2800   32.2660  -11.7870 C   0  0  0  0  0  0  0  0  0  0  0  0
   -0.0020   32.6460  -12.1640 C   0  0  0  0  0  0  0  0  0  0  0  0
   -2.6120   38.4640   -8.8670 C   0  0  1  0  0  0  0  0  0  0  0  0
   -3.4700   39.7510   -8.8270 C   0  0  0  0  0  0  0  0  0  0  0  0
   -3.2040   40.7120   -9.5530 O   0  0  0  0  0  0  0  0  0  0  0  0
   -4.5170   39.7190   -7.9960 N   0  0  0  0  0  0  0  0  0  0  0  0
   -2.6480   37.7080   -7.5380 C   0  0  0  0  0  0  0  0  0  0  0  0
   -1.2720   37.8330   -6.8540 C   0  0  0  0  0  0  0  0  0  0  0  0
   -1.0310   39.2340   -6.2540 C   0  0  0  0  0  0  0  0  0  0  0  0
   -0.9080   39.0810   -4.7250 C   0  0  0  0  0  0  0  0  0  0  0  0
    0.4860   39.0870   -4.2310 N   0  0  0  0  0  0  0  0  0  0  0  0
  1  2  1  0  0  0  0
  1 15  1  0  0  0  0
  2  8  1  0  0  0  0
  3  6  2  0  0  0  0
  3 14  1  0  0  0  0
  3  4  1  0  0  0  0
  4  5  2  0  0  0  0
  5  8  1  0  0  0  0
  6  7  1  0  0  0  0
  7  8  2  0  0  0  0
  9 10  2  0  0  0  0
  9 14  1  0  0  0  0
 10 11  1  0  0  0  0
 11 12  2  0  0  0  0
 12 13  1  0  0  0  0
 13 14  2  0  0  0  0
 15 16  1  0  0  0  0
 15 19  1  1  0  0  0
 16 17  2  0  0  0  0
 16 18  1  0  0  0  0
 19 20  1  0  0  0  0
 20 21  1  0  0  0  0
 21 22  1  0  0  0  0
 22 23  1  0  0  0  0
M  END
>  <COMPND>
    UNNAMED

>  <AUTHOR>
    GENERATED BY OPEN BABEL 2.4.90

>  <MASTER>
        0    0    0    0    0    0    0    0   23    0   23    0

