__4yi0_C_rec_4u5l_3d6_lig_min.pdb
 OpenBabel10191910473D

 23 24  0  0  1  0  0  0  0  0999 V2000
   -2.7280   38.2630  -16.5940 N   0  0  0  0  0  0  0  0  0  0  0  0
   -2.6620   37.7250  -15.2320 C   0  0  0  0  0  0  0  0  0  0  0  0
   -3.2250   34.1140  -14.0850 C   0  0  0  0  0  0  0  0  0  0  0  0
   -4.3310   34.4330  -16.2070 C   0  0  0  0  0  0  0  0  0  0  0  0
   -3.8970   35.7440  -16.2150 C   0  0  0  0  0  0  0  0  0  0  0  0
   -3.1260   36.2570  -15.1710 C   0  0  0  0  0  0  0  0  0  0  0  0
   -2.7920   35.4370  -14.0950 C   0  0  0  0  0  0  0  0  0  0  0  0
   -3.9990   33.6150  -15.1330 C   0  0  0  0  0  0  0  0  0  0  0  0
   -4.4840   32.1650  -15.1650 C   0  0  0  0  0  0  0  0  0  0  0  0
   -4.5870   29.9790  -14.2140 C   0  0  0  0  0  0  0  0  0  0  0  0
   -5.2270   31.7120  -16.2530 C   0  0  0  0  0  0  0  0  0  0  0  0
   -4.1370   31.2960  -14.1280 C   0  0  0  0  0  0  0  0  0  0  0  0
   -5.3380   29.5900  -15.3210 C   0  0  0  0  0  0  0  0  0  0  0  0
   -5.6290   30.4540  -16.2860 N   0  0  0  0  0  0  0  0  0  0  0  0
   -2.2000   39.6350  -16.7510 C   0  0  2  0  0  0  0  0  0  0  0  0
   -1.0900   40.6070  -14.6040 N   0  0  0  0  0  0  0  0  0  0  0  0
   -0.9500   39.9040  -15.8770 C   0  0  0  0  0  0  0  0  0  0  0  0
    0.1380   39.5540  -16.2190 O   0  0  0  0  0  0  0  0  0  0  0  0
   -3.2770   40.7060  -16.4920 C   0  0  0  0  0  0  0  0  0  0  0  0
   -4.3430   40.3740  -15.4340 C   0  0  0  0  0  0  0  0  0  0  0  0
   -5.7120   40.0620  -16.0630 C   0  0  0  0  0  0  0  0  0  0  0  0
   -6.0680   41.0030  -17.2340 C   0  0  0  0  0  0  0  0  0  0  0  0
   -7.4180   41.5640  -17.1530 N   0  0  0  0  0  0  0  0  0  0  0  0
  1  2  1  0  0  0  0
  1 15  1  0  0  0  0
  2  6  1  0  0  0  0
  3  7  2  0  0  0  0
  3  8  1  0  0  0  0
  4  8  2  0  0  0  0
  4  5  1  0  0  0  0
  5  6  2  0  0  0  0
  6  7  1  0  0  0  0
  8  9  1  0  0  0  0
  9 12  2  0  0  0  0
  9 11  1  0  0  0  0
 10 12  1  0  0  0  0
 10 13  2  0  0  0  0
 11 14  2  0  0  0  0
 13 14  1  0  0  0  0
 15 17  1  0  0  0  0
 15 19  1  1  0  0  0
 16 17  1  0  0  0  0
 17 18  2  0  0  0  0
 19 20  1  0  0  0  0
 20 21  1  0  0  0  0
 21 22  1  0  0  0  0
 22 23  1  0  0  0  0
M  END
>  <COMPND>
    UNNAMED

>  <AUTHOR>
    GENERATED BY OPEN BABEL 2.4.90

>  <MASTER>
        0    0    0    0    0    0    0    0   23    0   23    0

