__1awr_B_rec_4n1o_lsa_lig_min.pdb
 OpenBabel10201910343D

 12 13  0  0  0  0  0  0  0  0999 V2000
   18.8140  107.5250   23.8710 C   0  0  0  0  0  0  0  0  0  0  0  0
   20.1740  107.9130   23.8910 C   0  0  0  0  0  0  0  0  0  0  0  0
   21.0580  107.3610   22.9620 C   0  0  0  0  0  0  0  0  0  0  0  0
   21.7580  106.0890   21.1630 C   0  0  0  0  0  0  0  0  0  0  0  0
   18.3570  106.6290   22.8780 C   0  0  0  0  0  0  0  0  0  0  0  0
   22.6340  107.6100   22.7520 S   0  0  0  0  0  0  0  0  0  0  0  0
   22.9340  106.7010   21.4840 N   0  0  0  0  0  0  0  0  0  0  0  0
   21.6910  105.2810   20.1910 O   0  0  0  0  0  0  0  0  0  0  0  0
   20.5460  106.4540   21.9460 C   0  0  0  0  0  0  0  0  0  0  0  0
   19.2150  106.0780   21.9370 C   0  0  0  0  0  0  0  0  0  0  0  0
   23.3350  107.1240   23.9280 O   0  0  0  0  0  0  0  0  0  0  0  0
   22.9880  109.0140   22.6060 O   0  0  0  0  0  0  0  0  0  0  0  0
  1  5  2  0  0  0  0
  1  2  1  0  0  0  0
  2  3  2  0  0  0  0
  3  9  1  0  0  0  0
  3  6  1  0  0  0  0
  4  8  2  0  0  0  0
  4  9  1  0  0  0  0
  4  7  1  0  0  0  0
  5 10  1  0  0  0  0
  6  7  1  0  0  0  0
  6 12  2  0  0  0  0
  6 11  2  0  0  0  0
  9 10  2  0  0  0  0
M  END
>  <COMPND>
    UNNAMED

>  <AUTHOR>
    GENERATED BY OPEN BABEL 2.4.90

>  <MASTER>
        0    0    0    0    0    0    0    0   12    0   12    0

