__1awt_B_rec_4n1o_lsa_lig_docked.pdb
 OpenBabel10201910573D

 12 13  0  0  0  0  0  0  0  0999 V2000
   -2.4580  109.0970   18.6920 C   0  0  0  0  0  0  0  0  0  0  0  0
   -1.5480  108.3320   19.4590 C   0  0  0  0  0  0  0  0  0  0  0  0
   -1.8270  108.0830   20.8050 C   0  0  0  0  0  0  0  0  0  0  0  0
   -3.0160  108.1050   22.7860 C   0  0  0  0  0  0  0  0  0  0  0  0
   -3.6600  109.5510   19.2790 C   0  0  0  0  0  0  0  0  0  0  0  0
   -0.9900  107.2580   21.9030 S   0  0  0  0  0  0  0  0  0  0  0  0
   -1.9470  107.3490   23.1680 N   0  0  0  0  0  0  0  0  0  0  0  0
   -3.9510  108.3650   23.6000 O   0  0  0  0  0  0  0  0  0  0  0  0
   -3.0830  108.5540   21.3680 C   0  0  0  0  0  0  0  0  0  0  0  0
   -3.9630  109.3040   20.6110 C   0  0  0  0  0  0  0  0  0  0  0  0
    0.2640  107.9540   22.1400 O   0  0  0  0  0  0  0  0  0  0  0  0
   -0.6440  105.9090   21.4820 O   0  0  0  0  0  0  0  0  0  0  0  0
  1  5  2  0  0  0  0
  1  2  1  0  0  0  0
  2  3  2  0  0  0  0
  3  9  1  0  0  0  0
  3  6  1  0  0  0  0
  4  8  2  0  0  0  0
  4  9  1  0  0  0  0
  4  7  1  0  0  0  0
  5 10  1  0  0  0  0
  6  7  1  0  0  0  0
  6 12  2  0  0  0  0
  6 11  2  0  0  0  0
  9 10  2  0  0  0  0
M  END
>  <MODEL>
       2

>  <COMPND>
    UNNAMED

>  <AUTHOR>
    GENERATED BY OPEN BABEL 2.4.90

>  <MASTER>
        0    0    0    0    0    0    0    0   12    0   12    0

