__1awv_B_rec_4n1o_lsa_lig_docked.pdb
 OpenBabel10201912033D

 12 13  0  0  0  0  0  0  0  0999 V2000
   -2.3150  109.1860   18.6310 C   0  0  0  0  0  0  0  0  0  0  0  0
   -1.5080  108.4210   19.5050 C   0  0  0  0  0  0  0  0  0  0  0  0
   -1.8900  108.2750   20.8400 C   0  0  0  0  0  0  0  0  0  0  0  0
   -3.2060  108.4930   22.7280 C   0  0  0  0  0  0  0  0  0  0  0  0
   -3.5240  109.7450   19.1040 C   0  0  0  0  0  0  0  0  0  0  0  0
   -1.1810  107.4760   22.0430 S   0  0  0  0  0  0  0  0  0  0  0  0
   -2.2130  107.7020   23.2290 N   0  0  0  0  0  0  0  0  0  0  0  0
   -4.1750  108.8570   23.4570 O   0  0  0  0  0  0  0  0  0  0  0  0
   -3.1500  108.8520   21.2840 C   0  0  0  0  0  0  0  0  0  0  0  0
   -3.9300  109.6020   20.4230 C   0  0  0  0  0  0  0  0  0  0  0  0
    0.0950  108.1130   22.3250 O   0  0  0  0  0  0  0  0  0  0  0  0
   -0.8910  106.0850   21.7290 O   0  0  0  0  0  0  0  0  0  0  0  0
  1  5  2  0  0  0  0
  1  2  1  0  0  0  0
  2  3  2  0  0  0  0
  3  9  1  0  0  0  0
  3  6  1  0  0  0  0
  4  8  2  0  0  0  0
  4  9  1  0  0  0  0
  4  7  1  0  0  0  0
  5 10  1  0  0  0  0
  6  7  1  0  0  0  0
  6 12  2  0  0  0  0
  6 11  2  0  0  0  0
  9 10  2  0  0  0  0
M  END
>  <MODEL>
       3

>  <COMPND>
    UNNAMED

>  <AUTHOR>
    GENERATED BY OPEN BABEL 2.4.90

>  <MASTER>
        0    0    0    0    0    0    0    0   12    0   12    0

