__1awv_B_rec_4n1p_wm1_lig_min.pdb
 OpenBabel10201909343D

  9  9  0  0  0  0  0  0  0  0999 V2000
   -1.3080  108.6640   19.8330 C   0  0  0  0  0  0  0  0  0  0  0  0
   -2.0100  109.1000   18.7130 C   0  0  0  0  0  0  0  0  0  0  0  0
   -3.3190  109.5510   18.8640 C   0  0  0  0  0  0  0  0  0  0  0  0
   -3.9650  109.5540   20.1050 C   0  0  0  0  0  0  0  0  0  0  0  0
   -3.2930  109.1570   21.1460 N   0  0  0  0  0  0  0  0  0  0  0  0
   -2.0010  108.6980   21.0520 C   0  0  0  0  0  0  0  0  0  0  0  0
   -1.2300  108.2190   22.2610 C   0  0  0  0  0  0  0  0  0  0  0  0
   -0.0040  108.1430   22.1100 O   0  0  0  0  0  0  0  0  0  0  0  0
   -1.9560  108.0230   23.4220 N   0  0  0  0  0  0  0  0  0  0  0  0
  1  2  2  0  0  0  0
  1  6  1  0  0  0  0
  2  3  1  0  0  0  0
  3  4  2  0  0  0  0
  4  5  1  0  0  0  0
  5  6  2  0  0  0  0
  6  7  1  0  0  0  0
  7  8  2  0  0  0  0
  7  9  1  0  0  0  0
M  END
>  <COMPND>
    UNNAMED

>  <AUTHOR>
    GENERATED BY OPEN BABEL 2.4.90

>  <MASTER>
        0    0    0    0    0    0    0    0    9    0    9    0

