__1awv_B_rec_3rdd_ea4_lig_docked.pdb
 OpenBabel10201912033D

 18 18  0  0  0  0  0  0  0  0999 V2000
   -0.0530  106.9290   23.2620 N   0  0  0  0  0  0  0  0  0  0  0  0
    1.4090  105.3440   22.5870 O   0  0  0  0  0  0  0  0  0  0  0  0
    1.7940  106.5250   24.4580 N   0  0  0  0  0  0  0  0  0  0  0  0
    1.0690  106.2200   23.3910 C   0  0  0  0  0  0  0  0  0  0  0  0
   -0.9820  106.7160   22.1720 C   0  0  0  0  0  0  0  0  0  0  0  0
   -1.2060  108.0270   21.4490 C   0  0  0  0  0  0  0  0  0  0  0  0
   -0.7820  109.0930   21.8870 O   0  0  0  0  0  0  0  0  0  0  0  0
   -1.9320  107.9470   20.3120 O   0  0  0  0  0  0  0  0  0  0  0  0
   -2.8940  109.4630   18.8420 C   0  0  0  0  0  0  0  0  0  0  0  0
   -1.5460  108.8570   19.2680 C   0  0  0  0  0  0  0  0  0  0  0  0
    3.0640  105.8880   24.7490 C   0  0  0  0  0  0  0  0  0  0  0  0
    6.7480  109.9300   26.0430 N   0  0  0  0  0  0  0  0  0  0  0  0
    5.6340  107.9580   26.6420 C   0  0  0  0  0  0  0  0  0  0  0  0
    5.2180  109.0090   24.5260 C   0  0  0  0  0  0  0  0  0  0  0  0
    4.7370  106.9510   26.3260 C   0  0  0  0  0  0  0  0  0  0  0  0
    4.3120  108.0040   24.2070 C   0  0  0  0  0  0  0  0  0  0  0  0
    5.8790  108.9810   25.7400 C   0  0  0  0  0  0  0  0  0  0  0  0
    4.0720  106.9800   25.1050 C   0  0  0  0  0  0  0  0  0  0  0  0
  1  5  1  0  0  0  0
  1  4  1  0  0  0  0
  2  4  2  0  0  0  0
  3  4  1  0  0  0  0
  3 11  1  0  0  0  0
  5  6  1  0  0  0  0
  6  8  1  0  0  0  0
  6  7  2  0  0  0  0
  8 10  1  0  0  0  0
  9 10  1  0  0  0  0
 11 18  1  0  0  0  0
 12 17  1  0  0  0  0
 13 15  2  0  0  0  0
 13 17  1  0  0  0  0
 14 17  2  0  0  0  0
 14 16  1  0  0  0  0
 15 18  1  0  0  0  0
 16 18  2  0  0  0  0
M  END
>  <MODEL>
       2

>  <COMPND>
    UNNAMED

>  <AUTHOR>
    GENERATED BY OPEN BABEL 2.4.90

>  <MASTER>
        0    0    0    0    0    0    0    0   18    0   18    0

