__1cwf_A_rec_4n1q_wm2_lig_min.pdb
 OpenBabel10201910063D

  9  9  0  0  0  0  0  0  0  0999 V2000
   -2.0190  108.4570   21.0890 C   0  0  0  0  0  0  0  0  0  0  0  0
   -3.1840  109.4710   20.9160 C   0  0  0  0  0  0  0  0  0  0  0  0
   -3.8590  109.2790   19.5370 C   0  0  0  0  0  0  0  0  0  0  0  0
   -2.8210  109.3790   18.3850 C   0  0  0  0  0  0  0  0  0  0  0  0
   -1.6350  108.3970   18.6490 C   0  0  0  0  0  0  0  0  0  0  0  0
   -0.9310  108.7600   20.0140 C   0  0  0  0  0  0  0  0  0  0  0  0
   -0.4130  108.8740   22.7000 O   0  0  0  0  0  0  0  0  0  0  0  0
   -1.5680  108.6600   22.5260 C   0  0  0  0  0  0  0  0  0  0  0  0
   -2.4750  108.6540   23.5220 N   0  0  0  0  0  0  0  0  0  0  0  0
  1  6  1  0  0  0  0
  1  2  1  0  0  0  0
  1  8  1  0  0  0  0
  2  3  1  0  0  0  0
  3  4  1  0  0  0  0
  4  5  1  0  0  0  0
  5  6  1  0  0  0  0
  7  8  2  0  0  0  0
  8  9  1  0  0  0  0
M  END
>  <COMPND>
    UNNAMED

>  <AUTHOR>
    GENERATED BY OPEN BABEL 2.4.90

>  <MASTER>
        0    0    0    0    0    0    0    0    9    0    9    0

