__1cwh_A_rec_4n1o_lsa_lig_min.pdb
 OpenBabel10201909533D

 12 13  0  0  0  0  0  0  0  0999 V2000
   19.4230  104.9570   23.2680 C   0  0  0  0  0  0  0  0  0  0  0  0
   20.4470  105.2520   22.3370 C   0  0  0  0  0  0  0  0  0  0  0  0
   20.1770  105.1640   20.9700 C   0  0  0  0  0  0  0  0  0  0  0  0
   18.9330  104.8440   19.0480 C   0  0  0  0  0  0  0  0  0  0  0  0
   18.1280  104.6340   22.8040 C   0  0  0  0  0  0  0  0  0  0  0  0
   21.1290  105.4350   19.7020 S   0  0  0  0  0  0  0  0  0  0  0  0
   20.1260  105.2040   18.4930 N   0  0  0  0  0  0  0  0  0  0  0  0
   17.9320  104.5770   18.3190 O   0  0  0  0  0  0  0  0  0  0  0  0
   18.8270  104.8430   20.5330 C   0  0  0  0  0  0  0  0  0  0  0  0
   17.8330  104.5530   21.4510 C   0  0  0  0  0  0  0  0  0  0  0  0
   22.1900  104.4410   19.7060 O   0  0  0  0  0  0  0  0  0  0  0  0
   21.7800  106.7370   19.7290 O   0  0  0  0  0  0  0  0  0  0  0  0
  1  5  2  0  0  0  0
  1  2  1  0  0  0  0
  2  3  2  0  0  0  0
  3  9  1  0  0  0  0
  3  6  1  0  0  0  0
  4  8  2  0  0  0  0
  4  9  1  0  0  0  0
  4  7  1  0  0  0  0
  5 10  1  0  0  0  0
  6  7  1  0  0  0  0
  6 12  2  0  0  0  0
  6 11  2  0  0  0  0
  9 10  2  0  0  0  0
M  END
>  <COMPND>
    UNNAMED

>  <AUTHOR>
    GENERATED BY OPEN BABEL 2.4.90

>  <MASTER>
        0    0    0    0    0    0    0    0   12    0   12    0

