__1cwi_A_rec_4n1q_wm2_lig_docked.pdb
 OpenBabel10201910453D

  9  9  0  0  0  0  0  0  0  0999 V2000
   -2.1560  108.4510   21.1020 C   0  0  0  0  0  0  0  0  0  0  0  0
   -3.4130  109.3640   21.1370 C   0  0  0  0  0  0  0  0  0  0  0  0
   -4.1320  109.3370   19.7680 C   0  0  0  0  0  0  0  0  0  0  0  0
   -3.1620  109.7210   18.6170 C   0  0  0  0  0  0  0  0  0  0  0  0
   -1.8830  108.8280   18.6760 C   0  0  0  0  0  0  0  0  0  0  0  0
   -1.1510  109.0280   20.0590 C   0  0  0  0  0  0  0  0  0  0  0  0
   -0.5210  108.1630   22.7120 O   0  0  0  0  0  0  0  0  0  0  0  0
   -1.6580  108.4590   22.5380 C   0  0  0  0  0  0  0  0  0  0  0  0
   -2.4780  108.8510   23.5320 N   0  0  0  0  0  0  0  0  0  0  0  0
  1  6  1  0  0  0  0
  1  2  1  0  0  0  0
  1  8  1  0  0  0  0
  2  3  1  0  0  0  0
  3  4  1  0  0  0  0
  4  5  1  0  0  0  0
  5  6  1  0  0  0  0
  7  8  2  0  0  0  0
  8  9  1  0  0  0  0
M  END
>  <MODEL>
       5

>  <COMPND>
    UNNAMED

>  <AUTHOR>
    GENERATED BY OPEN BABEL 2.4.90

>  <MASTER>
        0    0    0    0    0    0    0    0    9    0    9    0

