__1cwo_A_rec_4n1p_wm1_lig_min.pdb
 OpenBabel10201909563D

  9  9  0  0  0  0  0  0  0  0999 V2000
   -1.0330  108.0060   19.7560 C   0  0  0  0  0  0  0  0  0  0  0  0
   -1.7670  108.4660   18.6670 C   0  0  0  0  0  0  0  0  0  0  0  0
   -2.6840  109.4980   18.8530 C   0  0  0  0  0  0  0  0  0  0  0  0
   -2.9150  110.0690   20.1090 C   0  0  0  0  0  0  0  0  0  0  0  0
   -2.2120  109.6380   21.1160 N   0  0  0  0  0  0  0  0  0  0  0  0
   -1.2980  108.6200   20.9880 C   0  0  0  0  0  0  0  0  0  0  0  0
   -0.4980  108.1080   22.1640 C   0  0  0  0  0  0  0  0  0  0  0  0
    0.4390  107.3510   21.8770 O   0  0  0  0  0  0  0  0  0  0  0  0
   -0.8270  108.6170   23.4080 N   0  0  0  0  0  0  0  0  0  0  0  0
  1  2  2  0  0  0  0
  1  6  1  0  0  0  0
  2  3  1  0  0  0  0
  3  4  2  0  0  0  0
  4  5  1  0  0  0  0
  5  6  2  0  0  0  0
  6  7  1  0  0  0  0
  7  8  2  0  0  0  0
  7  9  1  0  0  0  0
M  END
>  <COMPND>
    UNNAMED

>  <AUTHOR>
    GENERATED BY OPEN BABEL 2.4.90

>  <MASTER>
        0    0    0    0    0    0    0    0    9    0    9    0

