__1fgl_A_rec_4n1o_lsa_lig_min.pdb
 OpenBabel10201910333D

 12 13  0  0  0  0  0  0  0  0999 V2000
   19.3270  107.2220   23.5860 C   0  0  0  0  0  0  0  0  0  0  0  0
   20.6030  107.8070   23.7610 C   0  0  0  0  0  0  0  0  0  0  0  0
   21.6760  107.3560   22.9880 C   0  0  0  0  0  0  0  0  0  0  0  0
   22.7880  106.1340   21.3720 C   0  0  0  0  0  0  0  0  0  0  0  0
   19.1420  106.2310   22.5960 C   0  0  0  0  0  0  0  0  0  0  0  0
   23.2130  107.8280   22.9710 S   0  0  0  0  0  0  0  0  0  0  0  0
   23.8110  106.9250   21.8080 N   0  0  0  0  0  0  0  0  0  0  0  0
   22.9700  105.2890   20.4480 O   0  0  0  0  0  0  0  0  0  0  0  0
   21.4400  106.3460   21.9680 C   0  0  0  0  0  0  0  0  0  0  0  0
   20.1900  105.7770   21.8080 C   0  0  0  0  0  0  0  0  0  0  0  0
   23.8090  107.4960   24.2550 O   0  0  0  0  0  0  0  0  0  0  0  0
   23.3830  109.2620   22.7920 O   0  0  0  0  0  0  0  0  0  0  0  0
  1  5  2  0  0  0  0
  1  2  1  0  0  0  0
  2  3  2  0  0  0  0
  3  9  1  0  0  0  0
  3  6  1  0  0  0  0
  4  8  2  0  0  0  0
  4  9  1  0  0  0  0
  4  7  1  0  0  0  0
  5 10  1  0  0  0  0
  6  7  1  0  0  0  0
  6 12  2  0  0  0  0
  6 11  2  0  0  0  0
  9 10  2  0  0  0  0
M  END
>  <COMPND>
    UNNAMED

>  <AUTHOR>
    GENERATED BY OPEN BABEL 2.4.90

>  <MASTER>
        0    0    0    0    0    0    0    0   12    0   12    0

