__1m63_C_rec_4n1o_lsa_lig_min.pdb
 OpenBabel10201909233D

 12 13  0  0  0  0  0  0  0  0999 V2000
   20.3860  105.0530   23.2880 C   0  0  0  0  0  0  0  0  0  0  0  0
   21.3630  104.8240   22.2910 C   0  0  0  0  0  0  0  0  0  0  0  0
   21.0200  104.9840   20.9460 C   0  0  0  0  0  0  0  0  0  0  0  0
   19.7040  105.4970   19.1160 C   0  0  0  0  0  0  0  0  0  0  0  0
   19.0960  105.4930   22.9150 C   0  0  0  0  0  0  0  0  0  0  0  0
   21.9090  104.7950   19.6180 S   0  0  0  0  0  0  0  0  0  0  0  0
   20.8780  105.2090   18.4830 N   0  0  0  0  0  0  0  0  0  0  0  0
   18.6810  105.8470   18.4590 O   0  0  0  0  0  0  0  0  0  0  0  0
   19.6870  105.4530   20.6040 C   0  0  0  0  0  0  0  0  0  0  0  0
   18.7370  105.6700   21.5870 C   0  0  0  0  0  0  0  0  0  0  0  0
   22.2790  103.3940   19.5100 O   0  0  0  0  0  0  0  0  0  0  0  0
   23.1510  105.5530   19.6340 O   0  0  0  0  0  0  0  0  0  0  0  0
  1  5  2  0  0  0  0
  1  2  1  0  0  0  0
  2  3  2  0  0  0  0
  3  9  1  0  0  0  0
  3  6  1  0  0  0  0
  4  8  2  0  0  0  0
  4  9  1  0  0  0  0
  4  7  1  0  0  0  0
  5 10  1  0  0  0  0
  6  7  1  0  0  0  0
  6 12  2  0  0  0  0
  6 11  2  0  0  0  0
  9 10  2  0  0  0  0
M  END
>  <COMPND>
    UNNAMED

>  <AUTHOR>
    GENERATED BY OPEN BABEL 2.4.90

>  <MASTER>
        0    0    0    0    0    0    0    0   12    0   12    0

