__1m63_C_rec_4n1o_lsa_lig_docked.pdb
 OpenBabel10201911373D

 12 13  0  0  0  0  0  0  0  0999 V2000
   -2.3910  109.2470   18.5220 C   0  0  0  0  0  0  0  0  0  0  0  0
   -1.5600  108.7860   19.5690 C   0  0  0  0  0  0  0  0  0  0  0  0
   -2.0700  108.7100   20.8670 C   0  0  0  0  0  0  0  0  0  0  0  0
   -3.6310  108.8390   22.5670 C   0  0  0  0  0  0  0  0  0  0  0  0
   -3.7400  109.5710   18.7910 C   0  0  0  0  0  0  0  0  0  0  0  0
   -1.3680  108.2310   22.2330 S   0  0  0  0  0  0  0  0  0  0  0  0
   -2.5670  108.3530   23.2680 N   0  0  0  0  0  0  0  0  0  0  0  0
   -4.7390  109.0580   23.1390 O   0  0  0  0  0  0  0  0  0  0  0  0
   -3.4680  109.0370   21.1010 C   0  0  0  0  0  0  0  0  0  0  0  0
   -4.2720  109.4910   20.0710 C   0  0  0  0  0  0  0  0  0  0  0  0
   -0.2990  109.1640   22.5500 O   0  0  0  0  0  0  0  0  0  0  0  0
   -0.7560  106.9130   22.1450 O   0  0  0  0  0  0  0  0  0  0  0  0
  1  5  2  0  0  0  0
  1  2  1  0  0  0  0
  2  3  2  0  0  0  0
  3  9  1  0  0  0  0
  3  6  1  0  0  0  0
  4  8  2  0  0  0  0
  4  9  1  0  0  0  0
  4  7  1  0  0  0  0
  5 10  1  0  0  0  0
  6  7  1  0  0  0  0
  6 12  2  0  0  0  0
  6 11  2  0  0  0  0
  9 10  2  0  0  0  0
M  END
>  <MODEL>
       2

>  <COMPND>
    UNNAMED

>  <AUTHOR>
    GENERATED BY OPEN BABEL 2.4.90

>  <MASTER>
        0    0    0    0    0    0    0    0   12    0   12    0

