__1m63_C_rec_4n1q_wm2_lig_min.pdb
 OpenBabel10201909513D

  9  9  0  0  0  0  0  0  0  0999 V2000
   -2.0650  108.6370   21.0260 C   0  0  0  0  0  0  0  0  0  0  0  0
   -3.3960  109.4390   21.0040 C   0  0  0  0  0  0  0  0  0  0  0  0
   -4.1260  109.2260   19.6570 C   0  0  0  0  0  0  0  0  0  0  0  0
   -3.2060  109.5850   18.4570 C   0  0  0  0  0  0  0  0  0  0  0  0
   -1.8550  108.8120   18.5710 C   0  0  0  0  0  0  0  0  0  0  0  0
   -1.1260  109.1990   19.9160 C   0  0  0  0  0  0  0  0  0  0  0  0
   -0.4400  109.2170   22.5660 O   0  0  0  0  0  0  0  0  0  0  0  0
   -1.5520  108.8170   22.4450 C   0  0  0  0  0  0  0  0  0  0  0  0
   -2.3700  108.5860   23.4900 N   0  0  0  0  0  0  0  0  0  0  0  0
  1  6  1  0  0  0  0
  1  2  1  0  0  0  0
  1  8  1  0  0  0  0
  2  3  1  0  0  0  0
  3  4  1  0  0  0  0
  4  5  1  0  0  0  0
  5  6  1  0  0  0  0
  7  8  2  0  0  0  0
  8  9  1  0  0  0  0
M  END
>  <COMPND>
    UNNAMED

>  <AUTHOR>
    GENERATED BY OPEN BABEL 2.4.90

>  <MASTER>
        0    0    0    0    0    0    0    0    9    0    9    0

