__1m63_C_rec_4n1p_wm1_lig_min.pdb
 OpenBabel10201910223D

  9  9  0  0  0  0  0  0  0  0999 V2000
   -1.4770  108.9660   20.0850 C   0  0  0  0  0  0  0  0  0  0  0  0
   -2.1520  109.1920   18.8890 C   0  0  0  0  0  0  0  0  0  0  0  0
   -3.5190  109.4600   18.9210 C   0  0  0  0  0  0  0  0  0  0  0  0
   -4.2440  109.4810   20.1170 C   0  0  0  0  0  0  0  0  0  0  0  0
   -3.5970  109.2810   21.2290 N   0  0  0  0  0  0  0  0  0  0  0  0
   -2.2500  109.0080   21.2530 C   0  0  0  0  0  0  0  0  0  0  0  0
   -1.5060  108.7570   22.5450 C   0  0  0  0  0  0  0  0  0  0  0  0
   -0.3300  109.1430   22.5610 O   0  0  0  0  0  0  0  0  0  0  0  0
   -2.2410  108.2280   23.5910 N   0  0  0  0  0  0  0  0  0  0  0  0
  1  2  2  0  0  0  0
  1  6  1  0  0  0  0
  2  3  1  0  0  0  0
  3  4  2  0  0  0  0
  4  5  1  0  0  0  0
  5  6  2  0  0  0  0
  6  7  1  0  0  0  0
  7  8  2  0  0  0  0
  7  9  1  0  0  0  0
M  END
>  <COMPND>
    UNNAMED

>  <AUTHOR>
    GENERATED BY OPEN BABEL 2.4.90

>  <MASTER>
        0    0    0    0    0    0    0    0    9    0    9    0

