__1m63_C_rec_1w8l_1p3_lig_docked.pdb
 OpenBabel10201911393D

 10 10  0  0  1  0  0  0  0  0999 V2000
   -5.3240  107.2220   20.3220 C   0  0  0  0  0  0  0  0  0  0  0  0
   -4.2820  108.2430   20.6980 C   0  0  1  0  0  0  0  0  0  0  0  0
   -2.9840  107.5340   21.0190 C   0  0  0  0  0  0  0  0  0  0  0  0
   -4.0770  109.2250   19.5500 C   0  0  0  0  0  0  0  0  0  0  0  0
   -2.9530  110.2030   19.8550 C   0  0  0  0  0  0  0  0  0  0  0  0
   -1.9340  108.5080   21.3030 N   0  0  0  0  0  0  0  0  0  0  0  0
   -1.6680  109.4820   20.2460 C   0  0  0  0  0  0  0  0  0  0  0  0
   -1.6530  107.5070   23.5450 C   0  0  0  0  0  0  0  0  0  0  0  0
   -1.2600  108.5090   22.4640 C   0  0  0  0  0  0  0  0  0  0  0  0
   -0.3710  109.3120   22.7260 O   0  0  0  0  0  0  0  0  0  0  0  0
  2  1  1  6  0  0  0
  2  4  1  0  0  0  0
  2  3  1  0  0  0  0
  3  6  1  0  0  0  0
  4  5  1  0  0  0  0
  5  7  1  0  0  0  0
  6  7  1  0  0  0  0
  6  9  1  0  0  0  0
  8  9  1  0  0  0  0
  9 10  2  0  0  0  0
M  END
>  <MODEL>
       2

>  <COMPND>
    UNNAMED

>  <AUTHOR>
    GENERATED BY OPEN BABEL 2.4.90

>  <MASTER>
        0    0    0    0    0    0    0    0   10    0   10    0

