__1m9c_B_rec_5noz_l99_lig_min.pdb
 OpenBabel10201910193D

 12 12  0  0  0  0  0  0  0  0999 V2000
    4.0670  105.6530   26.6730 C   0  0  0  0  0  0  0  0  0  0  0  0
    5.3810  106.0230   26.9350 C   0  0  0  0  0  0  0  0  0  0  0  0
    5.9500  107.0970   26.2610 C   0  0  0  0  0  0  0  0  0  0  0  0
    7.2320  107.4560   26.5190 N   0  0  0  0  0  0  0  0  0  0  0  0
    5.2100  107.8020   25.3270 C   0  0  0  0  0  0  0  0  0  0  0  0
    5.7670  108.8480   24.6710 N   0  0  0  0  0  0  0  0  0  0  0  0
    3.8960  107.4350   25.0620 C   0  0  0  0  0  0  0  0  0  0  0  0
    3.3250  106.3620   25.7350 C   0  0  0  0  0  0  0  0  0  0  0  0
    4.1470  103.7980   28.1420 O   0  0  0  0  0  0  0  0  0  0  0  0
    3.4630  104.4910   27.4080 C   0  0  0  0  0  0  0  0  0  0  0  0
    2.1640  104.2720   27.2080 N   0  0  0  0  0  0  0  0  0  0  0  0
    1.2940  105.3290   26.8690 N   0  0  0  0  0  0  0  0  0  0  0  0
  1  8  2  0  0  0  0
  1 10  1  0  0  0  0
  1  2  1  0  0  0  0
  2  3  2  0  0  0  0
  3  5  1  0  0  0  0
  3  4  1  0  0  0  0
  5  7  2  0  0  0  0
  5  6  1  0  0  0  0
  7  8  1  0  0  0  0
  9 10  2  0  0  0  0
 10 11  1  0  0  0  0
 11 12  1  0  0  0  0
M  END
>  <COMPND>
    UNNAMED

>  <AUTHOR>
    GENERATED BY OPEN BABEL 2.4.90

>  <MASTER>
        0    0    0    0    0    0    0    0   12    0   12    0

