__1m9c_B_rec_4n1o_lsa_lig_min.pdb
 OpenBabel10201910023D

 12 13  0  0  0  0  0  0  0  0999 V2000
   19.2550  106.0290   23.6460 C   0  0  0  0  0  0  0  0  0  0  0  0
   20.5690  106.5380   23.5200 C   0  0  0  0  0  0  0  0  0  0  0  0
   21.2360  106.4190   22.2990 C   0  0  0  0  0  0  0  0  0  0  0  0
   21.5500  105.8860   20.0720 C   0  0  0  0  0  0  0  0  0  0  0  0
   18.6150  105.4590   22.5230 C   0  0  0  0  0  0  0  0  0  0  0  0
   22.7110  106.8960   21.8700 S   0  0  0  0  0  0  0  0  0  0  0  0
   22.7460  106.4870   20.3350 N   0  0  0  0  0  0  0  0  0  0  0  0
   21.2910  105.4350   18.9170 O   0  0  0  0  0  0  0  0  0  0  0  0
   20.5370  105.8400   21.1620 C   0  0  0  0  0  0  0  0  0  0  0  0
   19.2540  105.3420   21.2970 C   0  0  0  0  0  0  0  0  0  0  0  0
   23.6810  106.1360   22.6410 O   0  0  0  0  0  0  0  0  0  0  0  0
   22.9730  108.3020   22.1430 O   0  0  0  0  0  0  0  0  0  0  0  0
  1  5  2  0  0  0  0
  1  2  1  0  0  0  0
  2  3  2  0  0  0  0
  3  9  1  0  0  0  0
  3  6  1  0  0  0  0
  4  8  2  0  0  0  0
  4  9  1  0  0  0  0
  4  7  1  0  0  0  0
  5 10  1  0  0  0  0
  6  7  1  0  0  0  0
  6 12  2  0  0  0  0
  6 11  2  0  0  0  0
  9 10  2  0  0  0  0
M  END
>  <COMPND>
    UNNAMED

>  <AUTHOR>
    GENERATED BY OPEN BABEL 2.4.90

>  <MASTER>
        0    0    0    0    0    0    0    0   12    0   12    0

