__1m9d_B_rec_5noy_93k_lig_min.pdb
 OpenBabel10201909073D

 11 11  0  0  0  0  0  0  0  0999 V2000
    4.7920  106.6270   25.2780 C   0  0  0  0  0  0  0  0  0  0  0  0
    4.0000  107.4690   24.5110 C   0  0  0  0  0  0  0  0  0  0  0  0
    4.5100  108.6810   24.0600 C   0  0  0  0  0  0  0  0  0  0  0  0
    5.8270  109.0260   24.3340 C   0  0  0  0  0  0  0  0  0  0  0  0
    6.6200  108.1840   25.1020 C   0  0  0  0  0  0  0  0  0  0  0  0
    6.1040  106.9780   25.5650 C   0  0  0  0  0  0  0  0  0  0  0  0
    7.8880  108.5440   25.4130 N   0  0  0  0  0  0  0  0  0  0  0  0
    6.3520  110.1650   23.8200 N   0  0  0  0  0  0  0  0  0  0  0  0
    4.2740  105.1480   27.0320 O   0  0  0  0  0  0  0  0  0  0  0  0
    4.2170  105.3560   25.8310 C   0  0  0  0  0  0  0  0  0  0  0  0
    3.6580  104.4860   24.9920 N   0  0  0  0  0  0  0  0  0  0  0  0
  1  2  2  0  0  0  0
  1 10  1  0  0  0  0
  1  6  1  0  0  0  0
  2  3  1  0  0  0  0
  3  4  2  0  0  0  0
  4  8  1  0  0  0  0
  4  5  1  0  0  0  0
  5  6  2  0  0  0  0
  5  7  1  0  0  0  0
  9 10  2  0  0  0  0
 10 11  1  0  0  0  0
M  END
>  <COMPND>
    UNNAMED

>  <AUTHOR>
    GENERATED BY OPEN BABEL 2.4.90

>  <MASTER>
        0    0    0    0    0    0    0    0   11    0   11    0

