__1m9d_B_rec_4n1p_wm1_lig_docked.pdb
 OpenBabel10201910493D

  9  9  0  0  0  0  0  0  0  0999 V2000
   -1.6540  108.9140   19.9110 C   0  0  0  0  0  0  0  0  0  0  0  0
   -2.5550  109.4300   18.9840 C   0  0  0  0  0  0  0  0  0  0  0  0
   -3.8770  109.6440   19.3690 C   0  0  0  0  0  0  0  0  0  0  0  0
   -4.3370  109.3310   20.6530 C   0  0  0  0  0  0  0  0  0  0  0  0
   -3.4800  108.8620   21.5130 N   0  0  0  0  0  0  0  0  0  0  0  0
   -2.1670  108.6260   21.1830 C   0  0  0  0  0  0  0  0  0  0  0  0
   -1.1790  108.0630   22.1800 C   0  0  0  0  0  0  0  0  0  0  0  0
   -0.1000  107.6910   21.7010 O   0  0  0  0  0  0  0  0  0  0  0  0
   -1.5400  108.1240   23.5140 N   0  0  0  0  0  0  0  0  0  0  0  0
  1  2  2  0  0  0  0
  1  6  1  0  0  0  0
  2  3  1  0  0  0  0
  3  4  2  0  0  0  0
  4  5  1  0  0  0  0
  5  6  2  0  0  0  0
  6  7  1  0  0  0  0
  7  8  2  0  0  0  0
  7  9  1  0  0  0  0
M  END
>  <MODEL>
       4

>  <COMPND>
    UNNAMED

>  <AUTHOR>
    GENERATED BY OPEN BABEL 2.4.90

>  <MASTER>
        0    0    0    0    0    0    0    0    9    0    9    0

