__1m9d_B_rec_3rdd_ea4_lig_docked.pdb
 OpenBabel10201910483D

 18 18  0  0  0  0  0  0  0  0999 V2000
   -0.2750  106.8920   23.6490 N   0  0  0  0  0  0  0  0  0  0  0  0
    1.1760  105.5670   22.5320 O   0  0  0  0  0  0  0  0  0  0  0  0
    1.7050  106.3810   24.5580 N   0  0  0  0  0  0  0  0  0  0  0  0
    0.8840  106.2450   23.5260 C   0  0  0  0  0  0  0  0  0  0  0  0
   -1.3030  106.8380   22.6320 C   0  0  0  0  0  0  0  0  0  0  0  0
   -1.2370  108.0950   21.7920 C   0  0  0  0  0  0  0  0  0  0  0  0
   -0.6250  109.0940   22.1620 O   0  0  0  0  0  0  0  0  0  0  0  0
   -1.9240  108.0550   20.6290 O   0  0  0  0  0  0  0  0  0  0  0  0
   -2.9730  109.4610   19.1100 C   0  0  0  0  0  0  0  0  0  0  0  0
   -1.5950  109.0850   19.6820 C   0  0  0  0  0  0  0  0  0  0  0  0
    3.0250  105.7820   24.5930 C   0  0  0  0  0  0  0  0  0  0  0  0
    6.8010  109.8370   25.5340 N   0  0  0  0  0  0  0  0  0  0  0  0
    5.0040  109.0160   24.2750 C   0  0  0  0  0  0  0  0  0  0  0  0
    5.8960  107.7530   26.1090 C   0  0  0  0  0  0  0  0  0  0  0  0
    4.0620  108.0270   24.0430 C   0  0  0  0  0  0  0  0  0  0  0  0
    4.9570  106.7560   25.8780 C   0  0  0  0  0  0  0  0  0  0  0  0
    5.9150  108.8820   25.3100 C   0  0  0  0  0  0  0  0  0  0  0  0
    4.0440  106.8930   24.8480 C   0  0  0  0  0  0  0  0  0  0  0  0
  1  5  1  0  0  0  0
  1  4  1  0  0  0  0
  2  4  2  0  0  0  0
  3  4  1  0  0  0  0
  3 11  1  0  0  0  0
  5  6  1  0  0  0  0
  6  8  1  0  0  0  0
  6  7  2  0  0  0  0
  8 10  1  0  0  0  0
  9 10  1  0  0  0  0
 11 18  1  0  0  0  0
 12 17  1  0  0  0  0
 13 15  2  0  0  0  0
 13 17  1  0  0  0  0
 14 17  2  0  0  0  0
 14 16  1  0  0  0  0
 15 18  1  0  0  0  0
 16 18  2  0  0  0  0
M  END
>  <MODEL>
       1

>  <COMPND>
    UNNAMED

>  <AUTHOR>
    GENERATED BY OPEN BABEL 2.4.90

>  <MASTER>
        0    0    0    0    0    0    0    0   18    0   18    0

