__1m9e_B_rec_4n1o_lsa_lig_min.pdb
 OpenBabel10201910073D

 12 13  0  0  0  0  0  0  0  0999 V2000
   19.7490  105.5690   23.7430 C   0  0  0  0  0  0  0  0  0  0  0  0
   21.1200  105.4150   23.4320 C   0  0  0  0  0  0  0  0  0  0  0  0
   21.5300  105.4540   22.0980 C   0  0  0  0  0  0  0  0  0  0  0  0
   21.3450  105.6900   19.8060 C   0  0  0  0  0  0  0  0  0  0  0  0
   18.8210  105.8170   22.7070 C   0  0  0  0  0  0  0  0  0  0  0  0
   22.9980  105.3090   21.4570 S   0  0  0  0  0  0  0  0  0  0  0  0
   22.6940  105.5230   19.9120 N   0  0  0  0  0  0  0  0  0  0  0  0
   20.8000  105.8680   18.6770 O   0  0  0  0  0  0  0  0  0  0  0  0
   20.5460  105.7270   21.0620 C   0  0  0  0  0  0  0  0  0  0  0  0
   19.2070  105.8730   21.3750 C   0  0  0  0  0  0  0  0  0  0  0  0
   23.4810  103.9640   21.7180 O   0  0  0  0  0  0  0  0  0  0  0  0
   23.9770  106.2220   22.0280 O   0  0  0  0  0  0  0  0  0  0  0  0
  1  5  2  0  0  0  0
  1  2  1  0  0  0  0
  2  3  2  0  0  0  0
  3  9  1  0  0  0  0
  3  6  1  0  0  0  0
  4  8  2  0  0  0  0
  4  9  1  0  0  0  0
  4  7  1  0  0  0  0
  5 10  1  0  0  0  0
  6  7  1  0  0  0  0
  6 12  2  0  0  0  0
  6 11  2  0  0  0  0
  9 10  2  0  0  0  0
M  END
>  <COMPND>
    UNNAMED

>  <AUTHOR>
    GENERATED BY OPEN BABEL 2.4.90

>  <MASTER>
        0    0    0    0    0    0    0    0   12    0   12    0

