__1m9e_B_rec_4n1p_wm1_lig_docked.pdb
 OpenBabel10201911493D

  9  9  0  0  0  0  0  0  0  0999 V2000
   -1.4110  108.7310   19.6910 C   0  0  0  0  0  0  0  0  0  0  0  0
   -2.3370  109.2440   18.7870 C   0  0  0  0  0  0  0  0  0  0  0  0
   -3.6370  109.5010   19.2180 C   0  0  0  0  0  0  0  0  0  0  0  0
   -4.0520  109.2330   20.5270 C   0  0  0  0  0  0  0  0  0  0  0  0
   -3.1720  108.7670   21.3650 N   0  0  0  0  0  0  0  0  0  0  0  0
   -1.8790  108.4910   20.9910 C   0  0  0  0  0  0  0  0  0  0  0  0
   -0.8650  107.9310   21.9620 C   0  0  0  0  0  0  0  0  0  0  0  0
    0.2760  107.7800   21.5070 O   0  0  0  0  0  0  0  0  0  0  0  0
   -1.2890  107.7520   23.2670 N   0  0  0  0  0  0  0  0  0  0  0  0
  1  2  2  0  0  0  0
  1  6  1  0  0  0  0
  2  3  1  0  0  0  0
  3  4  2  0  0  0  0
  4  5  1  0  0  0  0
  5  6  2  0  0  0  0
  6  7  1  0  0  0  0
  7  8  2  0  0  0  0
  7  9  1  0  0  0  0
M  END
>  <MODEL>
       4

>  <COMPND>
    UNNAMED

>  <AUTHOR>
    GENERATED BY OPEN BABEL 2.4.90

>  <MASTER>
        0    0    0    0    0    0    0    0    9    0    9    0

