__1m9x_B_rec_4n1n_unu_lig_min.pdb
 OpenBabel10201909163D

  9  9  0  0  0  0  0  0  0  0999 V2000
   -1.7880  108.7150   20.8630 C   0  0  0  0  0  0  0  0  0  0  0  0
   -0.9830  108.5270   19.7540 C   0  0  0  0  0  0  0  0  0  0  0  0
   -3.0870  109.2630   20.7780 C   0  0  0  0  0  0  0  0  0  0  0  0
   -3.6820  109.5240   19.5160 C   0  0  0  0  0  0  0  0  0  0  0  0
   -2.8980  109.3180   18.3730 C   0  0  0  0  0  0  0  0  0  0  0  0
   -1.5960  108.7730   18.5070 C   0  0  0  0  0  0  0  0  0  0  0  0
   -0.0440  108.6240   22.3410 O   0  0  0  0  0  0  0  0  0  0  0  0
   -1.2170  108.5050   22.2000 C   0  0  0  0  0  0  0  0  0  0  0  0
   -2.0190  108.1800   23.2460 N   0  0  0  0  0  0  0  0  0  0  0  0
  1  2  2  0  0  0  0
  1  3  1  0  0  0  0
  1  8  1  0  0  0  0
  2  6  1  0  0  0  0
  3  4  2  0  0  0  0
  4  5  1  0  0  0  0
  5  6  2  0  0  0  0
  7  8  2  0  0  0  0
  8  9  1  0  0  0  0
M  END
>  <COMPND>
    UNNAMED

>  <AUTHOR>
    GENERATED BY OPEN BABEL 2.4.90

>  <MASTER>
        0    0    0    0    0    0    0    0    9    0    9    0

