__1m9y_B_rec_4n1p_wm1_lig_min.pdb
 OpenBabel10201909513D

  9  9  0  0  0  0  0  0  0  0999 V2000
   -1.1800  108.5980   19.5850 C   0  0  0  0  0  0  0  0  0  0  0  0
   -1.9970  109.0690   18.5610 C   0  0  0  0  0  0  0  0  0  0  0  0
   -3.3050  109.4480   18.8550 C   0  0  0  0  0  0  0  0  0  0  0  0
   -3.8370  109.3420   20.1450 C   0  0  0  0  0  0  0  0  0  0  0  0
   -3.0580  108.9120   21.0950 N   0  0  0  0  0  0  0  0  0  0  0  0
   -1.7620  108.5210   20.8580 C   0  0  0  0  0  0  0  0  0  0  0  0
   -0.8670  108.0040   21.9610 C   0  0  0  0  0  0  0  0  0  0  0  0
    0.1910  107.4830   21.5830 O   0  0  0  0  0  0  0  0  0  0  0  0
   -1.2700  108.2600   23.2590 N   0  0  0  0  0  0  0  0  0  0  0  0
  1  2  2  0  0  0  0
  1  6  1  0  0  0  0
  2  3  1  0  0  0  0
  3  4  2  0  0  0  0
  4  5  1  0  0  0  0
  5  6  2  0  0  0  0
  6  7  1  0  0  0  0
  7  8  2  0  0  0  0
  7  9  1  0  0  0  0
M  END
>  <COMPND>
    UNNAMED

>  <AUTHOR>
    GENERATED BY OPEN BABEL 2.4.90

>  <MASTER>
        0    0    0    0    0    0    0    0    9    0    9    0

