__1m9y_E_rec_4n1o_lsa_lig_docked.pdb
 OpenBabel10201912143D

 12 13  0  0  0  0  0  0  0  0999 V2000
   -2.6560  109.2000   18.4920 C   0  0  0  0  0  0  0  0  0  0  0  0
   -1.8100  108.6160   19.4640 C   0  0  0  0  0  0  0  0  0  0  0  0
   -2.2640  108.4860   20.7790 C   0  0  0  0  0  0  0  0  0  0  0  0
   -3.7320  108.6020   22.5600 C   0  0  0  0  0  0  0  0  0  0  0  0
   -3.9650  109.5920   18.8500 C   0  0  0  0  0  0  0  0  0  0  0  0
   -1.5340  107.8710   22.0740 S   0  0  0  0  0  0  0  0  0  0  0  0
   -2.6720  108.0010   23.1740 N   0  0  0  0  0  0  0  0  0  0  0  0
   -4.7950  108.8540   23.2000 O   0  0  0  0  0  0  0  0  0  0  0  0
   -3.6240  108.8870   21.1030 C   0  0  0  0  0  0  0  0  0  0  0  0
   -4.4420  109.4610   20.1460 C   0  0  0  0  0  0  0  0  0  0  0  0
   -0.3910  108.7100   22.3960 O   0  0  0  0  0  0  0  0  0  0  0  0
   -1.0180  106.5250   21.8700 O   0  0  0  0  0  0  0  0  0  0  0  0
  1  5  2  0  0  0  0
  1  2  1  0  0  0  0
  2  3  2  0  0  0  0
  3  9  1  0  0  0  0
  3  6  1  0  0  0  0
  4  8  2  0  0  0  0
  4  9  1  0  0  0  0
  4  7  1  0  0  0  0
  5 10  1  0  0  0  0
  6  7  1  0  0  0  0
  6 12  2  0  0  0  0
  6 11  2  0  0  0  0
  9 10  2  0  0  0  0
M  END
>  <MODEL>
       3

>  <COMPND>
    UNNAMED

>  <AUTHOR>
    GENERATED BY OPEN BABEL 2.4.90

>  <MASTER>
        0    0    0    0    0    0    0    0   12    0   12    0

