__1mf8_C_rec_4n1o_lsa_lig_min.pdb
 OpenBabel10201910273D

 12 13  0  0  0  0  0  0  0  0999 V2000
   19.2350  105.8370   23.2950 C   0  0  0  0  0  0  0  0  0  0  0  0
   20.5300  106.3780   23.1170 C   0  0  0  0  0  0  0  0  0  0  0  0
   21.1050  106.3780   21.8450 C   0  0  0  0  0  0  0  0  0  0  0  0
   21.2570  106.0480   19.5620 C   0  0  0  0  0  0  0  0  0  0  0  0
   18.5190  105.3570   22.1750 C   0  0  0  0  0  0  0  0  0  0  0  0
   22.5380  106.9180   21.3520 S   0  0  0  0  0  0  0  0  0  0  0  0
   22.4620  106.6450   19.7890 N   0  0  0  0  0  0  0  0  0  0  0  0
   20.9170  105.6960   18.3950 O   0  0  0  0  0  0  0  0  0  0  0  0
   20.3290  105.8890   20.7160 C   0  0  0  0  0  0  0  0  0  0  0  0
   19.0650  105.3590   20.9000 C   0  0  0  0  0  0  0  0  0  0  0  0
   23.5720  106.1090   21.9790 O   0  0  0  0  0  0  0  0  0  0  0  0
   22.8040  108.2980   21.7290 O   0  0  0  0  0  0  0  0  0  0  0  0
  1  5  2  0  0  0  0
  1  2  1  0  0  0  0
  2  3  2  0  0  0  0
  3  9  1  0  0  0  0
  3  6  1  0  0  0  0
  4  8  2  0  0  0  0
  4  9  1  0  0  0  0
  4  7  1  0  0  0  0
  5 10  1  0  0  0  0
  6  7  1  0  0  0  0
  6 12  2  0  0  0  0
  6 11  2  0  0  0  0
  9 10  2  0  0  0  0
M  END
>  <COMPND>
    UNNAMED

>  <AUTHOR>
    GENERATED BY OPEN BABEL 2.4.90

>  <MASTER>
        0    0    0    0    0    0    0    0   12    0   12    0

