__1nmk_B_rec_5ta4_838_lig_min.pdb
 OpenBabel10201910303D

 40 42  0  0  1  0  0  0  0  0999 V2000
   -1.5040  108.1180   20.8560 N   0  0  0  0  0  0  0  0  0  0  0  0
   -2.2300  106.9260   20.5900 N   0  0  0  0  0  0  0  0  0  0  0  0
   -3.7600  108.2750   19.1670 C   0  0  0  0  0  0  0  0  0  0  0  0
   -2.9060  109.5100   19.4500 C   0  0  0  0  0  0  0  0  0  0  0  0
   -1.4780  109.0610   19.7330 C   0  0  0  0  0  0  0  0  0  0  0  0
   -3.6430  107.2510   20.3020 C   0  0  1  0  0  0  0  0  0  0  0  0
    1.1880  104.8020   26.7940 C   0  0  0  0  0  0  0  0  0  0  0  0
    1.1070  103.3850   27.3850 C   0  0  2  0  0  0  0  0  0  0  0  0
    2.3920  103.1340   28.1860 C   0  0  0  0  0  0  0  0  0  0  0  0
    0.8050  102.2870   26.3240 C   0  0  1  0  0  0  0  0  0  0  0  0
   -0.5840  102.2960   25.6280 C   0  0  0  0  0  0  0  0  0  0  0  0
   -0.9050  103.5290   24.7580 C   0  0  0  0  0  0  0  0  0  0  0  0
   -4.3110  105.9590   19.8680 C   0  0  0  0  0  0  0  0  0  0  0  0
   -6.1870  104.5530   20.4120 C   0  0  1  0  0  0  0  0  0  0  0  0
   -5.4320  103.3180   20.8970 C   0  0  0  0  0  0  0  0  0  0  0  0
   -4.4240  103.3920   21.9070 C   0  0  0  0  0  0  0  0  0  0  0  0
   -3.7310  102.2460   22.3630 C   0  0  0  0  0  0  0  0  0  0  0  0
   -4.0520  100.9990   21.8080 C   0  0  0  0  0  0  0  0  0  0  0  0
   -5.0370  100.9110   20.8190 C   0  0  0  0  0  0  0  0  0  0  0  0
   -5.7170  102.0490   20.3810 C   0  0  0  0  0  0  0  0  0  0  0  0
   -2.6910  102.3410   23.4070 C   0  0  0  0  0  0  0  0  0  0  0  0
   -1.9670  103.4330   23.6930 C   0  0  0  0  0  0  0  0  0  0  0  0
   -7.5100  104.8210   21.1160 C   0  0  0  0  0  0  0  0  0  0  0  0
    0.5790  105.7490   27.2730 O   0  0  0  0  0  0  0  0  0  0  0  0
   -3.9120  105.2250   18.9810 O   0  0  0  0  0  0  0  0  0  0  0  0
   -5.4060  105.7530   20.6390 O   0  0  0  0  0  0  0  0  0  0  0  0
    1.9760  104.9040   25.6650 N   0  0  0  0  0  0  0  0  0  0  0  0
    2.1760  106.1440   24.9210 C   0  0  2  0  0  0  0  0  0  0  0  0
    1.1290  106.1810   23.8230 C   0  0  0  0  0  0  0  0  0  0  0  0
    1.2010  105.4630   22.8290 O   0  0  0  0  0  0  0  0  0  0  0  0
    0.0670  107.0180   24.0130 N   0  0  0  0  0  0  0  0  0  0  0  0
   -1.0770  107.1450   23.1180 C   0  0  2  0  0  0  0  0  0  0  0  0
   -0.9130  108.2510   22.0880 C   0  0  0  0  0  0  0  0  0  0  0  0
   -0.2810  109.2750   22.3790 O   0  0  0  0  0  0  0  0  0  0  0  0
   -2.3620  107.3150   23.9080 C   0  0  0  0  0  0  0  0  0  0  0  0
    3.6110  106.3840   24.4310 C   0  0  0  0  0  0  0  0  0  0  0  0
    3.8050  107.8450   24.0110 C   0  0  0  0  0  0  0  0  0  0  0  0
    4.6420  106.0230   25.5030 C   0  0  0  0  0  0  0  0  0  0  0  0
    2.1200  100.9030   24.8050 C   0  0  0  0  0  0  0  0  0  0  0  0
    1.9110  102.1700   25.4120 O   0  0  0  0  0  0  0  0  0  0  0  0
  1  5  1  0  0  0  0
  1  2  1  0  0  0  0
  1 33  1  0  0  0  0
  2  6  1  0  0  0  0
  3  4  1  0  0  0  0
  4  5  1  0  0  0  0
  6  3  1  6  0  0  0
  6 13  1  0  0  0  0
  7 27  1  0  0  0  0
  7 24  2  0  0  0  0
  7  8  1  0  0  0  0
  8 10  1  0  0  0  0
  8  9  1  6  0  0  0
 10 40  1  6  0  0  0
 10 11  1  0  0  0  0
 11 12  1  0  0  0  0
 12 22  1  0  0  0  0
 13 25  2  0  0  0  0
 13 26  1  0  0  0  0
 14 26  1  0  0  0  0
 14 15  1  0  0  0  0
 14 23  1  1  0  0  0
 15 20  2  0  0  0  0
 15 16  1  0  0  0  0
 16 17  2  0  0  0  0
 17 18  1  0  0  0  0
 17 21  1  0  0  0  0
 18 19  2  0  0  0  0
 19 20  1  0  0  0  0
 21 22  2  0  0  0  0
 27 28  1  0  0  0  0
 28 29  1  0  0  0  0
 28 36  1  6  0  0  0
 29 30  2  0  0  0  0
 29 31  1  0  0  0  0
 31 32  1  0  0  0  0
 32 33  1  0  0  0  0
 32 35  1  1  0  0  0
 33 34  2  0  0  0  0
 36 37  1  0  0  0  0
 36 38  1  0  0  0  0
 39 40  1  0  0  0  0
M  END
>  <COMPND>
    UNNAMED

>  <AUTHOR>
    GENERATED BY OPEN BABEL 2.4.90

>  <MASTER>
        0    0    0    0    0    0    0    0   40    0   40    0

