__1nmk_B_rec_4n1o_lsa_lig_docked.pdb
 OpenBabel10201911383D

 12 13  0  0  0  0  0  0  0  0999 V2000
   -2.3690  109.1750   18.5990 C   0  0  0  0  0  0  0  0  0  0  0  0
   -1.5400  108.6740   19.6300 C   0  0  0  0  0  0  0  0  0  0  0  0
   -2.0710  108.4860   20.9080 C   0  0  0  0  0  0  0  0  0  0  0  0
   -3.6700  108.4320   22.5770 C   0  0  0  0  0  0  0  0  0  0  0  0
   -3.7350  109.4250   18.8600 C   0  0  0  0  0  0  0  0  0  0  0  0
   -1.3770  107.9400   22.2520 S   0  0  0  0  0  0  0  0  0  0  0  0
   -2.6000  107.9400   23.2660 N   0  0  0  0  0  0  0  0  0  0  0  0
   -4.7970  108.5660   23.1370 O   0  0  0  0  0  0  0  0  0  0  0  0
   -3.4860  108.7400   21.1310 C   0  0  0  0  0  0  0  0  0  0  0  0
   -4.2880  109.2330   20.1180 C   0  0  0  0  0  0  0  0  0  0  0  0
   -0.3550  108.8910   22.6580 O   0  0  0  0  0  0  0  0  0  0  0  0
   -0.7100  106.6570   22.0850 O   0  0  0  0  0  0  0  0  0  0  0  0
  1  5  2  0  0  0  0
  1  2  1  0  0  0  0
  2  3  2  0  0  0  0
  3  9  1  0  0  0  0
  3  6  1  0  0  0  0
  4  8  2  0  0  0  0
  4  9  1  0  0  0  0
  4  7  1  0  0  0  0
  5 10  1  0  0  0  0
  6  7  1  0  0  0  0
  6 12  2  0  0  0  0
  6 11  2  0  0  0  0
  9 10  2  0  0  0  0
M  END
>  <MODEL>
       3

>  <COMPND>
    UNNAMED

>  <AUTHOR>
    GENERATED BY OPEN BABEL 2.4.90

>  <MASTER>
        0    0    0    0    0    0    0    0   12    0   12    0

