__1nmk_B_rec_4n1s_wm4_lig_docked.pdb
 OpenBabel10201911403D

 10 10  0  0  0  0  0  0  0  0999 V2000
   -0.9120  108.1400   21.7840 C   0  0  0  0  0  0  0  0  0  0  0  0
   -0.4680  108.9540   22.5810 O   0  0  0  0  0  0  0  0  0  0  0  0
   -0.5680  106.8460   21.7200 N   0  0  0  0  0  0  0  0  0  0  0  0
    0.3210  106.3290   22.6780 N   0  0  0  0  0  0  0  0  0  0  0  0
   -1.6130  108.8240   19.4180 C   0  0  0  0  0  0  0  0  0  0  0  0
   -2.6510  109.2110   18.5400 C   0  0  0  0  0  0  0  0  0  0  0  0
   -3.9640  109.4230   18.9980 C   0  0  0  0  0  0  0  0  0  0  0  0
   -4.2230  109.2070   20.3240 C   0  0  0  0  0  0  0  0  0  0  0  0
   -3.2450  108.8050   21.2060 C   0  0  0  0  0  0  0  0  0  0  0  0
   -1.9630  108.6080   20.7730 C   0  0  0  0  0  0  0  0  0  0  0  0
  1 10  1  0  0  0  0
  1  3  1  0  0  0  0
  1  2  2  0  0  0  0
  3  4  1  0  0  0  0
  5  6  2  0  0  0  0
  5 10  1  0  0  0  0
  6  7  1  0  0  0  0
  7  8  2  0  0  0  0
  8  9  1  0  0  0  0
  9 10  2  0  0  0  0
M  END
>  <MODEL>
       2

>  <COMPND>
    UNNAMED

>  <AUTHOR>
    GENERATED BY OPEN BABEL 2.4.90

>  <MASTER>
        0    0    0    0    0    0    0    0   10    0   10    0

