__1nmk_B_rec_4n1n_unu_lig_min.pdb
 OpenBabel10201909503D

  9  9  0  0  0  0  0  0  0  0999 V2000
   -2.1240  108.7100   21.0510 C   0  0  0  0  0  0  0  0  0  0  0  0
   -1.2480  108.7340   19.9820 C   0  0  0  0  0  0  0  0  0  0  0  0
   -3.5040  108.9750   20.9110 C   0  0  0  0  0  0  0  0  0  0  0  0
   -4.0820  109.1500   19.6270 C   0  0  0  0  0  0  0  0  0  0  0  0
   -3.2210  109.1530   18.5220 C   0  0  0  0  0  0  0  0  0  0  0  0
   -1.8410  108.8890   18.7100 C   0  0  0  0  0  0  0  0  0  0  0  0
   -0.4810  108.9610   22.6220 O   0  0  0  0  0  0  0  0  0  0  0  0
   -1.5840  108.5770   22.4100 C   0  0  0  0  0  0  0  0  0  0  0  0
   -2.3350  108.0230   23.3970 N   0  0  0  0  0  0  0  0  0  0  0  0
  1  2  2  0  0  0  0
  1  3  1  0  0  0  0
  1  8  1  0  0  0  0
  2  6  1  0  0  0  0
  3  4  2  0  0  0  0
  4  5  1  0  0  0  0
  5  6  2  0  0  0  0
  7  8  2  0  0  0  0
  8  9  1  0  0  0  0
M  END
>  <COMPND>
    UNNAMED

>  <AUTHOR>
    GENERATED BY OPEN BABEL 2.4.90

>  <MASTER>
        0    0    0    0    0    0    0    0    9    0    9    0

