__1vbs_A_rec_4n1s_wm4_lig_min.pdb
 OpenBabel10201909233D

 10 10  0  0  0  0  0  0  0  0999 V2000
    1.7390  106.7130   23.3300 C   0  0  0  0  0  0  0  0  0  0  0  0
    2.5950  107.2240   22.6220 O   0  0  0  0  0  0  0  0  0  0  0  0
    0.4610  106.5100   22.9820 N   0  0  0  0  0  0  0  0  0  0  0  0
    0.0500  106.8340   21.6770 N   0  0  0  0  0  0  0  0  0  0  0  0
    1.2250  105.5150   25.5340 C   0  0  0  0  0  0  0  0  0  0  0  0
    1.6860  105.0760   26.7950 C   0  0  0  0  0  0  0  0  0  0  0  0
    2.9770  105.3860   27.2580 C   0  0  0  0  0  0  0  0  0  0  0  0
    3.7990  106.1030   26.4310 C   0  0  0  0  0  0  0  0  0  0  0  0
    3.3960  106.5280   25.1850 C   0  0  0  0  0  0  0  0  0  0  0  0
    2.1380  106.2400   24.7310 C   0  0  0  0  0  0  0  0  0  0  0  0
  1 10  1  0  0  0  0
  1  3  1  0  0  0  0
  1  2  2  0  0  0  0
  3  4  1  0  0  0  0
  5  6  2  0  0  0  0
  5 10  1  0  0  0  0
  6  7  1  0  0  0  0
  7  8  2  0  0  0  0
  8  9  1  0  0  0  0
  9 10  2  0  0  0  0
M  END
>  <COMPND>
    UNNAMED

>  <AUTHOR>
    GENERATED BY OPEN BABEL 2.4.90

>  <MASTER>
        0    0    0    0    0    0    0    0   10    0   10    0

