__1ynd_A_rec_1w8l_1p3_lig_docked.pdb
 OpenBabel10201911413D

 10 10  0  0  1  0  0  0  0  0999 V2000
   -4.5970  106.1680   19.5100 C   0  0  0  0  0  0  0  0  0  0  0  0
   -3.8040  107.3590   19.9830 C   0  0  1  0  0  0  0  0  0  0  0  0
   -2.5000  106.8810   20.5850 C   0  0  0  0  0  0  0  0  0  0  0  0
   -3.5310  108.3000   18.8150 C   0  0  0  0  0  0  0  0  0  0  0  0
   -2.6400  109.4570   19.2360 C   0  0  0  0  0  0  0  0  0  0  0  0
   -1.6760  108.0220   20.9730 N   0  0  0  0  0  0  0  0  0  0  0  0
   -1.3600  108.9700   19.9060 C   0  0  0  0  0  0  0  0  0  0  0  0
   -1.6790  107.1960   23.3020 C   0  0  0  0  0  0  0  0  0  0  0  0
   -1.2390  108.1900   22.2320 C   0  0  0  0  0  0  0  0  0  0  0  0
   -0.5420  109.1360   22.5820 O   0  0  0  0  0  0  0  0  0  0  0  0
  2  1  1  6  0  0  0
  2  4  1  0  0  0  0
  2  3  1  0  0  0  0
  3  6  1  0  0  0  0
  4  5  1  0  0  0  0
  5  7  1  0  0  0  0
  6  7  1  0  0  0  0
  6  9  1  0  0  0  0
  8  9  1  0  0  0  0
  9 10  2  0  0  0  0
M  END
>  <MODEL>
       5

>  <COMPND>
    UNNAMED

>  <AUTHOR>
    GENERATED BY OPEN BABEL 2.4.90

>  <MASTER>
        0    0    0    0    0    0    0    0   10    0   10    0

