__1ynd_A_rec_1nmk_sfm_lig_docked.pdb
 OpenBabel10201911413D

 53 55  0  0  1  0  0  0  0  0999 V2000
    1.1090  102.8850   26.6860 C   0  0  1  0  0  0  0  0  0  0  0  0
    1.3670  104.3690   26.3790 C   0  0  0  0  0  0  0  0  0  0  0  0
    1.0940  105.2290   27.2150 O   0  0  0  0  0  0  0  0  0  0  0  0
    1.8610  104.6380   25.1680 N   0  0  0  0  0  0  0  0  0  0  0  0
    2.0770  106.0150   24.7310 C   0  0  2  0  0  0  0  0  0  0  0  0
    0.9730  106.1960   23.7070 C   0  0  0  0  0  0  0  0  0  0  0  0
   -0.0240  106.9920   24.0370 N   0  0  0  0  0  0  0  0  0  0  0  0
   -1.2740  107.1330   23.2900 C   0  0  2  0  0  0  0  0  0  0  0  0
   -1.1900  108.3270   22.3200 C   0  0  0  0  0  0  0  0  0  0  0  0
   -0.7590  109.4060   22.7120 O   0  0  0  0  0  0  0  0  0  0  0  0
   -1.5630  108.1650   21.0400 N   0  0  0  0  0  0  0  0  0  0  0  0
   -1.7890  109.3540   20.1570 C   0  0  0  0  0  0  0  0  0  0  0  0
   -3.2850  109.5170   19.7330 C   0  0  0  0  0  0  0  0  0  0  0  0
   -3.9100  108.1730   19.3780 C   0  0  0  0  0  0  0  0  0  0  0  0
   -3.6160  107.0400   20.3770 C   0  0  2  0  0  0  0  0  0  0  0  0
   -2.1660  106.9630   20.6430 N   0  0  0  0  0  0  0  0  0  0  0  0
   -4.1150  105.7550   19.7600 C   0  0  0  0  0  0  0  0  0  0  0  0
   -3.3360  104.9800   19.2410 O   0  0  0  0  0  0  0  0  0  0  0  0
   -5.4420  105.6270   19.9060 O   0  0  0  0  0  0  0  0  0  0  0  0
   -6.1120  104.4260   19.4500 C   0  0  1  0  0  0  0  0  0  0  0  0
   -6.3200  103.3680   20.5450 C   0  0  0  0  0  0  0  0  0  0  0  0
   -5.0280  102.8310   21.1570 C   0  0  0  0  0  0  0  0  0  0  0  0
   -4.7890  102.7110   22.4550 C   0  0  0  0  0  0  0  0  0  0  0  0
   -3.6100  102.2200   22.8670 C   0  0  0  0  0  0  0  0  0  0  0  0
   -3.3140  102.0580   24.1590 C   0  0  0  0  0  0  0  0  0  0  0  0
   -1.9610  101.4930   24.6460 C   0  0  2  0  0  0  0  0  0  0  0  0
   -2.1350  100.3110   25.4300 O   0  0  0  0  0  0  0  0  0  0  0  0
   -1.2300  102.5070   25.5370 C   0  0  2  0  0  0  0  0  0  0  0  0
   -1.4110  103.9290   25.0090 C   0  0  0  0  0  0  0  0  0  0  0  0
    0.2890  102.1050   25.5710 C   0  0  1  0  0  0  0  0  0  0  0  0
    0.8490  102.1950   24.2460 O   0  0  0  0  0  0  0  0  0  0  0  0
    1.0540  105.6540   22.6060 O   0  0  0  0  0  0  0  0  0  0  0  0
    3.4460  106.1880   24.0350 C   0  0  0  0  0  0  0  0  0  0  0  0
    4.5590  105.8820   25.0410 C   0  0  0  0  0  0  0  0  0  0  0  0
    3.6240  107.6710   23.7030 C   0  0  0  0  0  0  0  0  0  0  0  0
   -7.4800  104.9000   18.9800 C   0  0  0  0  0  0  0  0  0  0  0  0
   -8.1200  104.1060   17.8290 C   0  0  0  0  0  0  0  0  0  0  0  0
   -8.0490  105.9120   19.5190 C   0  0  0  0  0  0  0  0  0  0  0  0
   -9.3960  106.4180   19.0890 C   0  0  0  0  0  0  0  0  0  0  0  0
   -9.3040  107.8250   19.0730 O   0  0  0  0  0  0  0  0  0  0  0  0
    2.4460  102.2020   26.9290 C   0  0  0  0  0  0  0  0  0  0  0  0
    2.7470  101.9660   28.3960 C   0  0  0  0  0  0  0  0  0  0  0  0
    4.6650  103.8200   28.1020 C   0  0  0  0  0  0  0  0  0  0  0  0
    4.1150  102.5140   28.6910 C   0  0  0  0  0  0  0  0  0  0  0  0
    4.9110  101.9190   29.4090 O   0  0  0  0  0  0  0  0  0  0  0  0
   -2.3490  107.3850   24.3670 C   0  0  0  0  0  0  0  0  0  0  0  0
   -3.7460  107.6200   23.8640 C   0  0  0  0  0  0  0  0  0  0  0  0
   -4.6320  106.5410   23.6830 C   0  0  0  0  0  0  0  0  0  0  0  0
   -5.9330  106.7290   23.1870 C   0  0  0  0  0  0  0  0  0  0  0  0
   -6.3570  108.0250   22.8670 C   0  0  0  0  0  0  0  0  0  0  0  0
   -5.4770  109.0880   23.0270 C   0  0  0  0  0  0  0  0  0  0  0  0
   -5.8740  110.3670   22.7300 O   0  0  0  0  0  0  0  0  0  0  0  0
   -4.2010  108.8840   23.5270 C   0  0  0  0  0  0  0  0  0  0  0  0
  1 30  1  0  0  0  0
  1  2  1  0  0  0  0
  1 41  1  6  0  0  0
  2  4  1  0  0  0  0
  2  3  2  0  0  0  0
  4  5  1  0  0  0  0
  5  6  1  0  0  0  0
  5 33  1  6  0  0  0
  6 32  2  0  0  0  0
  6  7  1  0  0  0  0
  7  8  1  0  0  0  0
  8  9  1  0  0  0  0
  8 46  1  1  0  0  0
  9 11  1  0  0  0  0
  9 10  2  0  0  0  0
 11 12  1  0  0  0  0
 11 16  1  0  0  0  0
 12 13  1  0  0  0  0
 13 14  1  0  0  0  0
 15 14  1  6  0  0  0
 15 17  1  0  0  0  0
 15 16  1  0  0  0  0
 17 18  2  0  0  0  0
 17 19  1  0  0  0  0
 19 20  1  0  0  0  0
 20 36  1  1  0  0  0
 20 21  1  0  0  0  0
 21 22  1  0  0  0  0
 22 23  2  0  0  0  0
 23 24  1  0  0  0  0
 24 25  2  0  0  0  0
 25 26  1  0  0  0  0
 26 28  1  0  0  0  0
 26 27  1  1  0  0  0
 28 29  1  6  0  0  0
 28 30  1  0  0  0  0
 30 31  1  6  0  0  0
 33 35  1  0  0  0  0
 33 34  1  0  0  0  0
 36 38  2  0  0  0  0
 36 37  1  0  0  0  0
 38 39  1  0  0  0  0
 39 40  1  0  0  0  0
 41 42  1  0  0  0  0
 42 44  1  0  0  0  0
 43 44  1  0  0  0  0
 44 45  2  0  0  0  0
 46 47  1  0  0  0  0
 47 53  2  0  0  0  0
 47 48  1  0  0  0  0
 48 49  2  0  0  0  0
 49 50  1  0  0  0  0
 50 51  2  0  0  0  0
 51 52  1  0  0  0  0
 51 53  1  0  0  0  0
M  END
>  <MODEL>
       1

>  <COMPND>
    UNNAMED

>  <AUTHOR>
    GENERATED BY OPEN BABEL 2.4.90

>  <MASTER>
        0    0    0    0    0    0    0    0   53    0   53    0

