__1ynd_A_rec_5ta4_838_lig_min.pdb
 OpenBabel10201909523D

 40 42  0  0  1  0  0  0  0  0999 V2000
   -1.5630  108.2220   20.7940 N   0  0  0  0  0  0  0  0  0  0  0  0
   -2.2410  107.0200   20.4550 N   0  0  0  0  0  0  0  0  0  0  0  0
   -3.8100  108.3880   19.0930 C   0  0  0  0  0  0  0  0  0  0  0  0
   -3.0050  109.6360   19.4520 C   0  0  0  0  0  0  0  0  0  0  0  0
   -1.5630  109.2260   19.7240 C   0  0  0  0  0  0  0  0  0  0  0  0
   -3.6630  107.3070   20.1720 C   0  0  1  0  0  0  0  0  0  0  0  0
    1.2050  104.6870   26.5690 C   0  0  0  0  0  0  0  0  0  0  0  0
    1.1720  103.2380   27.0800 C   0  0  2  0  0  0  0  0  0  0  0  0
    2.4590  102.9910   27.8790 C   0  0  0  0  0  0  0  0  0  0  0  0
    0.9200  102.1890   25.9580 C   0  0  1  0  0  0  0  0  0  0  0  0
   -0.4620  102.1850   25.2500 C   0  0  0  0  0  0  0  0  0  0  0  0
   -0.8230  103.4510   24.4450 C   0  0  0  0  0  0  0  0  0  0  0  0
   -4.2780  106.0170   19.6610 C   0  0  0  0  0  0  0  0  0  0  0  0
   -6.1040  104.5150   20.1080 C   0  0  1  0  0  0  0  0  0  0  0  0
   -5.3070  103.2840   20.5320 C   0  0  0  0  0  0  0  0  0  0  0  0
   -4.3110  103.3400   21.5550 C   0  0  0  0  0  0  0  0  0  0  0  0
   -3.5790  102.1980   21.9550 C   0  0  0  0  0  0  0  0  0  0  0  0
   -3.8480  100.9720   21.3290 C   0  0  0  0  0  0  0  0  0  0  0  0
   -4.8200  100.9020   20.3260 C   0  0  0  0  0  0  0  0  0  0  0  0
   -5.5400  102.0350   19.9450 C   0  0  0  0  0  0  0  0  0  0  0  0
   -2.5520  102.2740   23.0130 C   0  0  0  0  0  0  0  0  0  0  0  0
   -1.8710  103.3740   23.3660 C   0  0  0  0  0  0  0  0  0  0  0  0
   -7.4420  104.6940   20.8120 C   0  0  0  0  0  0  0  0  0  0  0  0
    0.5560  105.5830   27.0920 O   0  0  0  0  0  0  0  0  0  0  0  0
   -3.8450  105.3490   18.7390 O   0  0  0  0  0  0  0  0  0  0  0  0
   -5.3710  105.7290   20.4080 O   0  0  0  0  0  0  0  0  0  0  0  0
    1.9980  104.8800   25.4540 N   0  0  0  0  0  0  0  0  0  0  0  0
    2.1570  106.1660   24.7810 C   0  0  2  0  0  0  0  0  0  0  0  0
    1.1180  106.2250   23.6770 C   0  0  0  0  0  0  0  0  0  0  0  0
    1.2250  105.5650   22.6460 O   0  0  0  0  0  0  0  0  0  0  0  0
    0.0230  107.0100   23.9010 N   0  0  0  0  0  0  0  0  0  0  0  0
   -1.1170  107.1430   23.0030 C   0  0  2  0  0  0  0  0  0  0  0  0
   -0.9880  108.3090   22.0370 C   0  0  0  0  0  0  0  0  0  0  0  0
   -0.3970  109.3390   22.3900 O   0  0  0  0  0  0  0  0  0  0  0  0
   -2.4150  107.2210   23.7880 C   0  0  0  0  0  0  0  0  0  0  0  0
    3.5850  106.4860   24.3200 C   0  0  0  0  0  0  0  0  0  0  0  0
    3.7080  107.9590   23.9140 C   0  0  0  0  0  0  0  0  0  0  0  0
    4.6140  106.1710   25.4070 C   0  0  0  0  0  0  0  0  0  0  0  0
    2.3050  100.9390   24.3850 C   0  0  0  0  0  0  0  0  0  0  0  0
    2.0370  102.1640   25.0520 O   0  0  0  0  0  0  0  0  0  0  0  0
  1  5  1  0  0  0  0
  1  2  1  0  0  0  0
  1 33  1  0  0  0  0
  2  6  1  0  0  0  0
  3  4  1  0  0  0  0
  4  5  1  0  0  0  0
  6  3  1  6  0  0  0
  6 13  1  0  0  0  0
  7 27  1  0  0  0  0
  7 24  2  0  0  0  0
  7  8  1  0  0  0  0
  8 10  1  0  0  0  0
  8  9  1  6  0  0  0
 10 40  1  6  0  0  0
 10 11  1  0  0  0  0
 11 12  1  0  0  0  0
 12 22  1  0  0  0  0
 13 25  2  0  0  0  0
 13 26  1  0  0  0  0
 14 26  1  0  0  0  0
 14 15  1  0  0  0  0
 14 23  1  1  0  0  0
 15 20  2  0  0  0  0
 15 16  1  0  0  0  0
 16 17  2  0  0  0  0
 17 18  1  0  0  0  0
 17 21  1  0  0  0  0
 18 19  2  0  0  0  0
 19 20  1  0  0  0  0
 21 22  2  0  0  0  0
 27 28  1  0  0  0  0
 28 29  1  0  0  0  0
 28 36  1  6  0  0  0
 29 30  2  0  0  0  0
 29 31  1  0  0  0  0
 31 32  1  0  0  0  0
 32 33  1  0  0  0  0
 32 35  1  1  0  0  0
 33 34  2  0  0  0  0
 36 37  1  0  0  0  0
 36 38  1  0  0  0  0
 39 40  1  0  0  0  0
M  END
>  <COMPND>
    UNNAMED

>  <AUTHOR>
    GENERATED BY OPEN BABEL 2.4.90

>  <MASTER>
        0    0    0    0    0    0    0    0   40    0   40    0

