__2alf_A_rec_3rdd_ea4_lig_docked.pdb
 OpenBabel10201911253D

 18 18  0  0  0  0  0  0  0  0999 V2000
   -0.9280  107.2870   23.2450 N   0  0  0  0  0  0  0  0  0  0  0  0
    0.4630  105.7970   22.2710 O   0  0  0  0  0  0  0  0  0  0  0  0
    0.9780  106.7020   24.2610 N   0  0  0  0  0  0  0  0  0  0  0  0
    0.1860  106.5560   23.2080 C   0  0  0  0  0  0  0  0  0  0  0  0
   -1.9220  107.2380   22.1940 C   0  0  0  0  0  0  0  0  0  0  0  0
   -1.7990  108.4790   21.3360 C   0  0  0  0  0  0  0  0  0  0  0  0
   -0.7570  109.1270   21.2750 O   0  0  0  0  0  0  0  0  0  0  0  0
   -2.9190  108.8400   20.6720 O   0  0  0  0  0  0  0  0  0  0  0  0
   -2.8130  109.2950   18.3990 C   0  0  0  0  0  0  0  0  0  0  0  0
   -2.7750  109.9620   19.7850 C   0  0  0  0  0  0  0  0  0  0  0  0
    2.2500  106.0190   24.3850 C   0  0  0  0  0  0  0  0  0  0  0  0
    6.1830  109.8920   25.4390 N   0  0  0  0  0  0  0  0  0  0  0  0
    4.8520  108.1190   26.1980 C   0  0  0  0  0  0  0  0  0  0  0  0
    4.6910  108.8940   23.9330 C   0  0  0  0  0  0  0  0  0  0  0  0
    3.8920  107.1540   25.9440 C   0  0  0  0  0  0  0  0  0  0  0  0
    3.7230  107.9300   23.6740 C   0  0  0  0  0  0  0  0  0  0  0  0
    5.2560  108.9830   25.1920 C   0  0  0  0  0  0  0  0  0  0  0  0
    3.3250  107.0640   24.6770 C   0  0  0  0  0  0  0  0  0  0  0  0
  1  5  1  0  0  0  0
  1  4  1  0  0  0  0
  2  4  2  0  0  0  0
  3  4  1  0  0  0  0
  3 11  1  0  0  0  0
  5  6  1  0  0  0  0
  6  8  1  0  0  0  0
  6  7  2  0  0  0  0
  8 10  1  0  0  0  0
  9 10  1  0  0  0  0
 11 18  1  0  0  0  0
 12 17  1  0  0  0  0
 13 15  2  0  0  0  0
 13 17  1  0  0  0  0
 14 17  2  0  0  0  0
 14 16  1  0  0  0  0
 15 18  1  0  0  0  0
 16 18  2  0  0  0  0
M  END
>  <MODEL>
       1

>  <COMPND>
    UNNAMED

>  <AUTHOR>
    GENERATED BY OPEN BABEL 2.4.90

>  <MASTER>
        0    0    0    0    0    0    0    0   18    0   18    0

