__2alf_A_rec_4n1n_unu_lig_min.pdb
 OpenBabel10201910083D

  9  9  0  0  0  0  0  0  0  0999 V2000
   -1.9740  108.8110   20.9740 C   0  0  0  0  0  0  0  0  0  0  0  0
   -1.1420  108.7310   19.8720 C   0  0  0  0  0  0  0  0  0  0  0  0
   -3.3070  109.2720   20.8900 C   0  0  0  0  0  0  0  0  0  0  0  0
   -3.8990  109.5520   19.6310 C   0  0  0  0  0  0  0  0  0  0  0  0
   -3.0870  109.4540   18.4940 C   0  0  0  0  0  0  0  0  0  0  0  0
   -1.7520  108.9930   18.6260 C   0  0  0  0  0  0  0  0  0  0  0  0
   -0.2600  108.8090   22.4870 O   0  0  0  0  0  0  0  0  0  0  0  0
   -1.4100  108.5760   22.3090 C   0  0  0  0  0  0  0  0  0  0  0  0
   -2.1930  108.1020   23.3120 N   0  0  0  0  0  0  0  0  0  0  0  0
  1  2  2  0  0  0  0
  1  3  1  0  0  0  0
  1  8  1  0  0  0  0
  2  6  1  0  0  0  0
  3  4  2  0  0  0  0
  4  5  1  0  0  0  0
  5  6  2  0  0  0  0
  7  8  2  0  0  0  0
  8  9  1  0  0  0  0
M  END
>  <COMPND>
    UNNAMED

>  <AUTHOR>
    GENERATED BY OPEN BABEL 2.4.90

>  <MASTER>
        0    0    0    0    0    0    0    0    9    0    9    0

