__2x25_B_rec_4n1p_wm1_lig_docked.pdb
 OpenBabel10201912013D

  9  9  0  0  0  0  0  0  0  0999 V2000
   -1.5760  108.7740   19.6300 C   0  0  0  0  0  0  0  0  0  0  0  0
   -2.5010  109.0420   18.6250 C   0  0  0  0  0  0  0  0  0  0  0  0
   -3.8180  109.3320   18.9730 C   0  0  0  0  0  0  0  0  0  0  0  0
   -4.2520  109.3340   20.3030 C   0  0  0  0  0  0  0  0  0  0  0  0
   -3.3740  109.0960   21.2330 N   0  0  0  0  0  0  0  0  0  0  0  0
   -2.0630  108.7990   20.9450 C   0  0  0  0  0  0  0  0  0  0  0  0
   -1.0510  108.5030   22.0280 C   0  0  0  0  0  0  0  0  0  0  0  0
   -0.0970  107.7950   21.6800 O   0  0  0  0  0  0  0  0  0  0  0  0
   -1.2400  109.1350   23.2440 N   0  0  0  0  0  0  0  0  0  0  0  0
  1  2  2  0  0  0  0
  1  6  1  0  0  0  0
  2  3  1  0  0  0  0
  3  4  2  0  0  0  0
  4  5  1  0  0  0  0
  5  6  2  0  0  0  0
  6  7  1  0  0  0  0
  7  8  2  0  0  0  0
  7  9  1  0  0  0  0
M  END
>  <MODEL>
       6

>  <COMPND>
    UNNAMED

>  <AUTHOR>
    GENERATED BY OPEN BABEL 2.4.90

>  <MASTER>
        0    0    0    0    0    0    0    0    9    0    9    0

