__2xgy_B_rec_4n1n_unu_lig_min.pdb
 OpenBabel10201909443D

  9  9  0  0  0  0  0  0  0  0999 V2000
   -3.2100  108.3680   26.7360 C   0  0  0  0  0  0  0  0  0  0  0  0
   -2.9580  109.1430   25.6190 C   0  0  0  0  0  0  0  0  0  0  0  0
   -4.2880  108.6230   27.6120 C   0  0  0  0  0  0  0  0  0  0  0  0
   -5.2510  109.6190   27.3060 C   0  0  0  0  0  0  0  0  0  0  0  0
   -5.0350  110.4040   26.1650 C   0  0  0  0  0  0  0  0  0  0  0  0
   -3.9350  110.1160   25.3180 C   0  0  0  0  0  0  0  0  0  0  0  0
   -1.5570  106.8520   26.2880 O   0  0  0  0  0  0  0  0  0  0  0  0
   -2.2290  107.3500   27.1310 C   0  0  0  0  0  0  0  0  0  0  0  0
   -2.1000  106.9890   28.4340 N   0  0  0  0  0  0  0  0  0  0  0  0
  1  2  2  0  0  0  0
  1  3  1  0  0  0  0
  1  8  1  0  0  0  0
  2  6  1  0  0  0  0
  3  4  2  0  0  0  0
  4  5  1  0  0  0  0
  5  6  2  0  0  0  0
  7  8  2  0  0  0  0
  8  9  1  0  0  0  0
M  END
>  <COMPND>
    UNNAMED

>  <AUTHOR>
    GENERATED BY OPEN BABEL 2.4.90

>  <MASTER>
        0    0    0    0    0    0    0    0    9    0    9    0

