__3k0r_A_rec_1w8l_1p3_lig_docked.pdb
 OpenBabel10201911293D

 10 10  0  0  1  0  0  0  0  0999 V2000
   -5.5770  107.1700   20.7250 C   0  0  0  0  0  0  0  0  0  0  0  0
   -4.3980  108.0720   20.9820 C   0  0  1  0  0  0  0  0  0  0  0  0
   -3.1510  107.2280   21.1390 C   0  0  0  0  0  0  0  0  0  0  0  0
   -4.2300  109.0510   19.8250 C   0  0  0  0  0  0  0  0  0  0  0  0
   -2.9830  109.9030   20.0010 C   0  0  0  0  0  0  0  0  0  0  0  0
   -1.9800  108.0850   21.3030 N   0  0  0  0  0  0  0  0  0  0  0  0
   -1.7420  109.0480   20.2300 C   0  0  0  0  0  0  0  0  0  0  0  0
   -1.5410  107.0160   23.4880 C   0  0  0  0  0  0  0  0  0  0  0  0
   -1.1770  107.9950   22.3760 C   0  0  0  0  0  0  0  0  0  0  0  0
   -0.1860  108.6980   22.5350 O   0  0  0  0  0  0  0  0  0  0  0  0
  2  1  1  6  0  0  0
  2  4  1  0  0  0  0
  2  3  1  0  0  0  0
  3  6  1  0  0  0  0
  4  5  1  0  0  0  0
  5  7  1  0  0  0  0
  6  7  1  0  0  0  0
  6  9  1  0  0  0  0
  8  9  1  0  0  0  0
  9 10  2  0  0  0  0
M  END
>  <MODEL>
       4

>  <COMPND>
    UNNAMED

>  <AUTHOR>
    GENERATED BY OPEN BABEL 2.4.90

>  <MASTER>
        0    0    0    0    0    0    0    0   10    0   10    0

