__3k0r_A_rec_4n1q_wm2_lig_min.pdb
 OpenBabel10201909213D

  9  9  0  0  0  0  0  0  0  0999 V2000
   -1.9460  108.2950   21.2210 C   0  0  0  0  0  0  0  0  0  0  0  0
   -3.3380  108.9200   21.5160 C   0  0  0  0  0  0  0  0  0  0  0  0
   -4.2610  108.7760   20.2830 C   0  0  0  0  0  0  0  0  0  0  0  0
   -3.6020  109.3860   19.0140 C   0  0  0  0  0  0  0  0  0  0  0  0
   -2.1770  108.7810   18.8100 C   0  0  0  0  0  0  0  0  0  0  0  0
   -1.2750  109.0970   20.0650 C   0  0  0  0  0  0  0  0  0  0  0  0
   -0.0370  108.4650   22.5150 O   0  0  0  0  0  0  0  0  0  0  0  0
   -1.2210  108.3710   22.5540 C   0  0  0  0  0  0  0  0  0  0  0  0
   -1.9250  108.3950   23.7020 N   0  0  0  0  0  0  0  0  0  0  0  0
  1  6  1  0  0  0  0
  1  2  1  0  0  0  0
  1  8  1  0  0  0  0
  2  3  1  0  0  0  0
  3  4  1  0  0  0  0
  4  5  1  0  0  0  0
  5  6  1  0  0  0  0
  7  8  2  0  0  0  0
  8  9  1  0  0  0  0
M  END
>  <COMPND>
    UNNAMED

>  <AUTHOR>
    GENERATED BY OPEN BABEL 2.4.90

>  <MASTER>
        0    0    0    0    0    0    0    0    9    0    9    0

