__3k0r_A_rec_4n1o_lsa_lig_min.pdb
 OpenBabel10201909143D

 12 13  0  0  0  0  0  0  0  0999 V2000
   19.2820  104.5120   23.5550 C   0  0  0  0  0  0  0  0  0  0  0  0
   19.3120  103.4060   22.6730 C   0  0  0  0  0  0  0  0  0  0  0  0
   19.1490  103.6180   21.3020 C   0  0  0  0  0  0  0  0  0  0  0  0
   18.8750  104.7980   19.3340 C   0  0  0  0  0  0  0  0  0  0  0  0
   19.1450  105.8190   23.0340 C   0  0  0  0  0  0  0  0  0  0  0  0
   19.1390  102.5680   20.0830 S   0  0  0  0  0  0  0  0  0  0  0  0
   18.9750  103.5340   18.8320 N   0  0  0  0  0  0  0  0  0  0  0  0
   18.7200  105.7910   18.5640 O   0  0  0  0  0  0  0  0  0  0  0  0
   19.0260  104.9790   20.8040 C   0  0  0  0  0  0  0  0  0  0  0  0
   18.9940  106.0530   21.6740 C   0  0  0  0  0  0  0  0  0  0  0  0
   17.9820  101.7010   20.2360 O   0  0  0  0  0  0  0  0  0  0  0  0
   20.3070  101.7010   20.0490 O   0  0  0  0  0  0  0  0  0  0  0  0
  1  5  2  0  0  0  0
  1  2  1  0  0  0  0
  2  3  2  0  0  0  0
  3  9  1  0  0  0  0
  3  6  1  0  0  0  0
  4  8  2  0  0  0  0
  4  9  1  0  0  0  0
  4  7  1  0  0  0  0
  5 10  1  0  0  0  0
  6  7  1  0  0  0  0
  6 12  2  0  0  0  0
  6 11  2  0  0  0  0
  9 10  2  0  0  0  0
M  END
>  <COMPND>
    UNNAMED

>  <AUTHOR>
    GENERATED BY OPEN BABEL 2.4.90

>  <MASTER>
        0    0    0    0    0    0    0    0   12    0   12    0

