__3k0r_A_rec_4n1n_unu_lig_min.pdb
 OpenBabel10201909093D

  9  9  0  0  0  0  0  0  0  0999 V2000
   -2.0360  108.7140   21.2570 C   0  0  0  0  0  0  0  0  0  0  0  0
   -1.3490  108.8100   20.0610 C   0  0  0  0  0  0  0  0  0  0  0  0
   -3.4300  108.9240   21.3540 C   0  0  0  0  0  0  0  0  0  0  0  0
   -4.2170  109.1150   20.1890 C   0  0  0  0  0  0  0  0  0  0  0  0
   -3.5500  109.1910   18.9590 C   0  0  0  0  0  0  0  0  0  0  0  0
   -2.1480  108.9800   18.9100 C   0  0  0  0  0  0  0  0  0  0  0  0
   -0.0900  108.5510   22.4470 O   0  0  0  0  0  0  0  0  0  0  0  0
   -1.2760  108.5610   22.5040 C   0  0  0  0  0  0  0  0  0  0  0  0
   -1.9220  108.4310   23.6920 N   0  0  0  0  0  0  0  0  0  0  0  0
  1  2  2  0  0  0  0
  1  3  1  0  0  0  0
  1  8  1  0  0  0  0
  2  6  1  0  0  0  0
  3  4  2  0  0  0  0
  4  5  1  0  0  0  0
  5  6  2  0  0  0  0
  7  8  2  0  0  0  0
  8  9  1  0  0  0  0
M  END
>  <COMPND>
    UNNAMED

>  <AUTHOR>
    GENERATED BY OPEN BABEL 2.4.90

>  <MASTER>
        0    0    0    0    0    0    0    0    9    0    9    0

