__3rdd_A_rec_3rdd_ea4_lig_docked.pdb
 OpenBabel10201911153D

 18 18  0  0  0  0  0  0  0  0999 V2000
   -0.7120  107.9050   22.8220 N   0  0  0  0  0  0  0  0  0  0  0  0
    0.2280  105.9490   22.1910 O   0  0  0  0  0  0  0  0  0  0  0  0
    1.2350  107.2570   23.7150 N   0  0  0  0  0  0  0  0  0  0  0  0
    0.2490  106.9830   22.8710 C   0  0  0  0  0  0  0  0  0  0  0  0
   -1.8780  107.7630   21.9760 C   0  0  0  0  0  0  0  0  0  0  0  0
   -1.6300  108.4740   20.6640 C   0  0  0  0  0  0  0  0  0  0  0  0
   -0.8210  109.3940   20.5650 O   0  0  0  0  0  0  0  0  0  0  0  0
   -2.3800  108.0530   19.6220 O   0  0  0  0  0  0  0  0  0  0  0  0
   -3.8530  109.8360   19.4410 C   0  0  0  0  0  0  0  0  0  0  0  0
   -2.7560  109.0720   18.6800 C   0  0  0  0  0  0  0  0  0  0  0  0
    2.3870  106.3930   23.8800 C   0  0  0  0  0  0  0  0  0  0  0  0
    6.5860  109.5120   25.9350 N   0  0  0  0  0  0  0  0  0  0  0  0
    5.1400  107.6830   26.1670 C   0  0  0  0  0  0  0  0  0  0  0  0
    5.0190  109.1080   24.2410 C   0  0  0  0  0  0  0  0  0  0  0  0
    4.1140  106.9030   25.6620 C   0  0  0  0  0  0  0  0  0  0  0  0
    3.9850  108.3310   23.7320 C   0  0  0  0  0  0  0  0  0  0  0  0
    5.5960  108.7810   25.4540 C   0  0  0  0  0  0  0  0  0  0  0  0
    3.5340  107.2320   24.4420 C   0  0  0  0  0  0  0  0  0  0  0  0
  1  5  1  0  0  0  0
  1  4  1  0  0  0  0
  2  4  2  0  0  0  0
  3  4  1  0  0  0  0
  3 11  1  0  0  0  0
  5  6  1  0  0  0  0
  6  8  1  0  0  0  0
  6  7  2  0  0  0  0
  8 10  1  0  0  0  0
  9 10  1  0  0  0  0
 11 18  1  0  0  0  0
 12 17  1  0  0  0  0
 13 15  2  0  0  0  0
 13 17  1  0  0  0  0
 14 17  2  0  0  0  0
 14 16  1  0  0  0  0
 15 18  1  0  0  0  0
 16 18  2  0  0  0  0
M  END
>  <MODEL>
       2

>  <COMPND>
    UNNAMED

>  <AUTHOR>
    GENERATED BY OPEN BABEL 2.4.90

>  <MASTER>
        0    0    0    0    0    0    0    0   18    0   18    0

