__4dga_B_rec_4n1p_wm1_lig_min.pdb
 OpenBabel10201909313D

  9  9  0  0  0  0  0  0  0  0999 V2000
   -1.9550  108.7300   20.3170 C   0  0  0  0  0  0  0  0  0  0  0  0
   -2.6740  109.0740   19.1760 C   0  0  0  0  0  0  0  0  0  0  0  0
   -4.0610  108.9400   19.1810 C   0  0  0  0  0  0  0  0  0  0  0  0
   -4.7550  108.4420   20.2890 C   0  0  0  0  0  0  0  0  0  0  0  0
   -4.0710  108.1370   21.3540 N   0  0  0  0  0  0  0  0  0  0  0  0
   -2.7020  108.2460   21.4000 C   0  0  0  0  0  0  0  0  0  0  0  0
   -1.9090  107.8720   22.6320 C   0  0  0  0  0  0  0  0  0  0  0  0
   -0.7790  108.3720   22.7050 O   0  0  0  0  0  0  0  0  0  0  0  0
   -2.5630  107.1090   23.5830 N   0  0  0  0  0  0  0  0  0  0  0  0
  1  2  2  0  0  0  0
  1  6  1  0  0  0  0
  2  3  1  0  0  0  0
  3  4  2  0  0  0  0
  4  5  1  0  0  0  0
  5  6  2  0  0  0  0
  6  7  1  0  0  0  0
  7  8  2  0  0  0  0
  7  9  1  0  0  0  0
M  END
>  <COMPND>
    UNNAMED

>  <AUTHOR>
    GENERATED BY OPEN BABEL 2.4.90

>  <MASTER>
        0    0    0    0    0    0    0    0    9    0    9    0

