__4ipz_A_rec_1w8l_1p3_lig_min.pdb
 OpenBabel10201909283D

 10 10  0  0  1  0  0  0  0  0999 V2000
   -4.9900  107.0300   20.2650 C   0  0  0  0  0  0  0  0  0  0  0  0
   -3.7440  107.8330   20.5400 C   0  0  1  0  0  0  0  0  0  0  0  0
   -2.6860  106.9240   21.1250 C   0  0  0  0  0  0  0  0  0  0  0  0
   -3.2400  108.4700   19.2500 C   0  0  0  0  0  0  0  0  0  0  0  0
   -1.9230  109.1970   19.4730 C   0  0  0  0  0  0  0  0  0  0  0  0
   -1.4400  107.6600   21.3200 N   0  0  0  0  0  0  0  0  0  0  0  0
   -0.8830  108.2950   20.1270 C   0  0  0  0  0  0  0  0  0  0  0  0
   -1.5360  107.1260   23.7310 C   0  0  0  0  0  0  0  0  0  0  0  0
   -0.8480  107.7520   22.5220 C   0  0  0  0  0  0  0  0  0  0  0  0
    0.2000  108.3600   22.7120 O   0  0  0  0  0  0  0  0  0  0  0  0
  2  1  1  6  0  0  0
  2  4  1  0  0  0  0
  2  3  1  0  0  0  0
  3  6  1  0  0  0  0
  4  5  1  0  0  0  0
  5  7  1  0  0  0  0
  6  7  1  0  0  0  0
  6  9  1  0  0  0  0
  8  9  1  0  0  0  0
  9 10  2  0  0  0  0
M  END
>  <COMPND>
    UNNAMED

>  <AUTHOR>
    GENERATED BY OPEN BABEL 2.4.90

>  <MASTER>
        0    0    0    0    0    0    0    0   10    0   10    0

