__4n1n_A_rec_4n1n_unu_lig_docked.pdb
 OpenBabel10201911513D

  9  9  0  0  0  0  0  0  0  0999 V2000
   -1.6450  108.6820   20.6370 C   0  0  0  0  0  0  0  0  0  0  0  0
   -1.2900  108.3480   19.3430 C   0  0  0  0  0  0  0  0  0  0  0  0
   -2.7690  109.4840   20.9340 C   0  0  0  0  0  0  0  0  0  0  0  0
   -3.6710  109.8770   19.9120 C   0  0  0  0  0  0  0  0  0  0  0  0
   -3.3490  109.5300   18.5930 C   0  0  0  0  0  0  0  0  0  0  0  0
   -2.2070  108.7290   18.3400 C   0  0  0  0  0  0  0  0  0  0  0  0
    0.2220  107.6790   21.4950 O   0  0  0  0  0  0  0  0  0  0  0  0
   -0.7320  108.3430   21.7350 C   0  0  0  0  0  0  0  0  0  0  0  0
   -0.9810  108.7830   22.9960 N   0  0  0  0  0  0  0  0  0  0  0  0
  1  2  2  0  0  0  0
  1  3  1  0  0  0  0
  1  8  1  0  0  0  0
  2  6  1  0  0  0  0
  3  4  2  0  0  0  0
  4  5  1  0  0  0  0
  5  6  2  0  0  0  0
  7  8  2  0  0  0  0
  8  9  1  0  0  0  0
M  END
>  <MODEL>
       2

>  <COMPND>
    UNNAMED

>  <AUTHOR>
    GENERATED BY OPEN BABEL 2.4.90

>  <MASTER>
        0    0    0    0    0    0    0    0    9    0    9    0

