__4n1n_A_rec_4n1n_unu_lig_docked.pdb
 OpenBabel10201911513D

  9  9  0  0  0  0  0  0  0  0999 V2000
   -1.6180  108.8140   20.6820 C   0  0  0  0  0  0  0  0  0  0  0  0
   -2.7680  109.5100   21.0060 C   0  0  0  0  0  0  0  0  0  0  0  0
   -1.3410  108.3700   19.3700 C   0  0  0  0  0  0  0  0  0  0  0  0
   -2.1790  108.7410   18.2870 C   0  0  0  0  0  0  0  0  0  0  0  0
   -3.3390  109.4700   18.5820 C   0  0  0  0  0  0  0  0  0  0  0  0
   -3.5810  109.8880   19.9160 C   0  0  0  0  0  0  0  0  0  0  0  0
    0.1800  107.6540   21.4890 O   0  0  0  0  0  0  0  0  0  0  0  0
   -0.7330  108.3620   21.7620 C   0  0  0  0  0  0  0  0  0  0  0  0
   -0.9600  108.7490   23.0450 N   0  0  0  0  0  0  0  0  0  0  0  0
  1  2  2  0  0  0  0
  1  3  1  0  0  0  0
  1  8  1  0  0  0  0
  2  6  1  0  0  0  0
  3  4  2  0  0  0  0
  4  5  1  0  0  0  0
  5  6  2  0  0  0  0
  7  8  2  0  0  0  0
  8  9  1  0  0  0  0
M  END
>  <MODEL>
       1

>  <COMPND>
    UNNAMED

>  <AUTHOR>
    GENERATED BY OPEN BABEL 2.4.90

>  <MASTER>
        0    0    0    0    0    0    0    0    9    0    9    0

