__4n1n_A_rec_4n1p_wm1_lig_min.pdb
 OpenBabel10201909193D

  9  9  0  0  0  0  0  0  0  0999 V2000
   -1.1980  108.3910   19.9110 C   0  0  0  0  0  0  0  0  0  0  0  0
   -1.7840  108.5730   18.6620 C   0  0  0  0  0  0  0  0  0  0  0  0
   -2.9770  109.2860   18.5680 C   0  0  0  0  0  0  0  0  0  0  0  0
   -3.6240  109.8020   19.6950 C   0  0  0  0  0  0  0  0  0  0  0  0
   -3.0590  109.6350   20.8560 N   0  0  0  0  0  0  0  0  0  0  0  0
   -1.8850  108.9360   21.0050 C   0  0  0  0  0  0  0  0  0  0  0  0
   -1.2420  108.7280   22.3570 C   0  0  0  0  0  0  0  0  0  0  0  0
   -0.0040  108.6910   22.3530 O   0  0  0  0  0  0  0  0  0  0  0  0
   -2.0880  108.7110   23.4510 N   0  0  0  0  0  0  0  0  0  0  0  0
  1  2  2  0  0  0  0
  1  6  1  0  0  0  0
  2  3  1  0  0  0  0
  3  4  2  0  0  0  0
  4  5  1  0  0  0  0
  5  6  2  0  0  0  0
  6  7  1  0  0  0  0
  7  8  2  0  0  0  0
  7  9  1  0  0  0  0
M  END
>  <COMPND>
    UNNAMED

>  <AUTHOR>
    GENERATED BY OPEN BABEL 2.4.90

>  <MASTER>
        0    0    0    0    0    0    0    0    9    0    9    0

