__4n1n_A_rec_4n1q_wm2_lig_docked.pdb
 OpenBabel10201911513D

  9  9  0  0  0  0  0  0  0  0999 V2000
   -1.6570  108.1390   20.7320 C   0  0  0  0  0  0  0  0  0  0  0  0
   -2.7280  109.1570   21.2110 C   0  0  0  0  0  0  0  0  0  0  0  0
   -3.8810  109.2440   20.1840 C   0  0  0  0  0  0  0  0  0  0  0  0
   -3.3450  109.5820   18.7650 C   0  0  0  0  0  0  0  0  0  0  0  0
   -2.2180  108.5780   18.3660 C   0  0  0  0  0  0  0  0  0  0  0  0
   -1.0320  108.6620   19.4030 C   0  0  0  0  0  0  0  0  0  0  0  0
    0.3060  107.4240   21.7240 O   0  0  0  0  0  0  0  0  0  0  0  0
   -0.6880  108.0510   21.8990 C   0  0  0  0  0  0  0  0  0  0  0  0
   -0.9470  108.7180   23.0400 N   0  0  0  0  0  0  0  0  0  0  0  0
  1  6  1  0  0  0  0
  1  2  1  0  0  0  0
  1  8  1  0  0  0  0
  2  3  1  0  0  0  0
  3  4  1  0  0  0  0
  4  5  1  0  0  0  0
  5  6  1  0  0  0  0
  7  8  2  0  0  0  0
  8  9  1  0  0  0  0
M  END
>  <MODEL>
       1

>  <COMPND>
    UNNAMED

>  <AUTHOR>
    GENERATED BY OPEN BABEL 2.4.90

>  <MASTER>
        0    0    0    0    0    0    0    0    9    0    9    0

