__4n1n_A_rec_4n1n_unu_lig_min.pdb
 OpenBabel10201909443D

  9  9  0  0  0  0  0  0  0  0999 V2000
   -1.8860  108.9060   20.8930 C   0  0  0  0  0  0  0  0  0  0  0  0
   -1.1560  108.4210   19.8240 C   0  0  0  0  0  0  0  0  0  0  0  0
   -3.0920  109.6240   20.7290 C   0  0  0  0  0  0  0  0  0  0  0  0
   -3.6830  109.7650   19.4470 C   0  0  0  0  0  0  0  0  0  0  0  0
   -2.9770  109.2590   18.3470 C   0  0  0  0  0  0  0  0  0  0  0  0
   -1.7670  108.5520   18.5580 C   0  0  0  0  0  0  0  0  0  0  0  0
   -0.1280  108.8500   22.3540 O   0  0  0  0  0  0  0  0  0  0  0  0
   -1.3090  108.8310   22.2410 C   0  0  0  0  0  0  0  0  0  0  0  0
   -2.1160  108.7410   23.3310 N   0  0  0  0  0  0  0  0  0  0  0  0
  1  2  2  0  0  0  0
  1  3  1  0  0  0  0
  1  8  1  0  0  0  0
  2  6  1  0  0  0  0
  3  4  2  0  0  0  0
  4  5  1  0  0  0  0
  5  6  2  0  0  0  0
  7  8  2  0  0  0  0
  8  9  1  0  0  0  0
M  END
>  <COMPND>
    UNNAMED

>  <AUTHOR>
    GENERATED BY OPEN BABEL 2.4.90

>  <MASTER>
        0    0    0    0    0    0    0    0    9    0    9    0

