__4n1o_A_rec_4n1o_lsa_lig_min.pdb
 OpenBabel10201910283D

 12 13  0  0  0  0  0  0  0  0999 V2000
   19.1280  106.9200   23.2210 C   0  0  0  0  0  0  0  0  0  0  0  0
   20.4670  107.3760   23.2670 C   0  0  0  0  0  0  0  0  0  0  0  0
   21.4030  106.8450   22.3770 C   0  0  0  0  0  0  0  0  0  0  0  0
   22.2150  105.5640   20.6330 C   0  0  0  0  0  0  0  0  0  0  0  0
   18.7440  105.9770   22.2410 C   0  0  0  0  0  0  0  0  0  0  0  0
   22.9690  107.1680   22.2020 S   0  0  0  0  0  0  0  0  0  0  0  0
   23.3500  106.2420   20.9680 N   0  0  0  0  0  0  0  0  0  0  0  0
   22.2160  104.7280   19.6810 O   0  0  0  0  0  0  0  0  0  0  0  0
   20.9650  105.8880   21.3730 C   0  0  0  0  0  0  0  0  0  0  0  0
   19.6550  105.4450   21.3380 C   0  0  0  0  0  0  0  0  0  0  0  0
   23.6610  106.7480   23.4100 O   0  0  0  0  0  0  0  0  0  0  0  0
   23.2580  108.5840   22.0270 O   0  0  0  0  0  0  0  0  0  0  0  0
  1  5  2  0  0  0  0
  1  2  1  0  0  0  0
  2  3  2  0  0  0  0
  3  9  1  0  0  0  0
  3  6  1  0  0  0  0
  4  8  2  0  0  0  0
  4  9  1  0  0  0  0
  4  7  1  0  0  0  0
  5 10  1  0  0  0  0
  6  7  1  0  0  0  0
  6 12  2  0  0  0  0
  6 11  2  0  0  0  0
  9 10  2  0  0  0  0
M  END
>  <COMPND>
    UNNAMED

>  <AUTHOR>
    GENERATED BY OPEN BABEL 2.4.90

>  <MASTER>
        0    0    0    0    0    0    0    0   12    0   12    0

