__4n1o_A_rec_4n1s_wm4_lig_min.pdb
 OpenBabel10201910173D

 10 10  0  0  0  0  0  0  0  0999 V2000
   -0.6800  108.0040   22.1700 C   0  0  0  0  0  0  0  0  0  0  0  0
   -0.5190  109.0980   22.6920 O   0  0  0  0  0  0  0  0  0  0  0  0
   -0.1650  106.8480   22.6110 N   0  0  0  0  0  0  0  0  0  0  0  0
    0.5690  106.8420   23.8110 N   0  0  0  0  0  0  0  0  0  0  0  0
   -2.6300  106.9960   20.8510 C   0  0  0  0  0  0  0  0  0  0  0  0
   -3.4160  107.0090   19.6760 C   0  0  0  0  0  0  0  0  0  0  0  0
   -3.1160  107.8610   18.5980 C   0  0  0  0  0  0  0  0  0  0  0  0
   -2.0530  108.7120   18.7290 C   0  0  0  0  0  0  0  0  0  0  0  0
   -1.2780  108.7480   19.8660 C   0  0  0  0  0  0  0  0  0  0  0  0
   -1.5540  107.9150   20.9160 C   0  0  0  0  0  0  0  0  0  0  0  0
  1 10  1  0  0  0  0
  1  3  1  0  0  0  0
  1  2  2  0  0  0  0
  3  4  1  0  0  0  0
  5  6  2  0  0  0  0
  5 10  1  0  0  0  0
  6  7  1  0  0  0  0
  7  8  2  0  0  0  0
  8  9  1  0  0  0  0
  9 10  2  0  0  0  0
M  END
>  <COMPND>
    UNNAMED

>  <AUTHOR>
    GENERATED BY OPEN BABEL 2.4.90

>  <MASTER>
        0    0    0    0    0    0    0    0   10    0   10    0

