__4n1q_A_rec_4n1o_lsa_lig_min.pdb
 OpenBabel10201910213D

 12 13  0  0  0  0  0  0  0  0999 V2000
   18.8350  104.5870   23.0430 C   0  0  0  0  0  0  0  0  0  0  0  0
   19.9110  105.4300   23.4080 C   0  0  0  0  0  0  0  0  0  0  0  0
   20.7650  105.9190   22.4170 C   0  0  0  0  0  0  0  0  0  0  0  0
   21.5880  106.2910   20.2900 C   0  0  0  0  0  0  0  0  0  0  0  0
   18.6070  104.2960   21.6790 C   0  0  0  0  0  0  0  0  0  0  0  0
   22.0490  106.8820   22.5350 S   0  0  0  0  0  0  0  0  0  0  0  0
   22.4610  107.0530   21.0100 N   0  0  0  0  0  0  0  0  0  0  0  0
   21.6800  106.2180   19.0290 O   0  0  0  0  0  0  0  0  0  0  0  0
   20.4870  105.6100   21.0240 C   0  0  0  0  0  0  0  0  0  0  0  0
   19.4350  104.7810   20.6770 C   0  0  0  0  0  0  0  0  0  0  0  0
   23.0790  106.1810   23.2840 O   0  0  0  0  0  0  0  0  0  0  0  0
   21.7850  108.1220   23.2500 O   0  0  0  0  0  0  0  0  0  0  0  0
  1  5  2  0  0  0  0
  1  2  1  0  0  0  0
  2  3  2  0  0  0  0
  3  9  1  0  0  0  0
  3  6  1  0  0  0  0
  4  8  2  0  0  0  0
  4  9  1  0  0  0  0
  4  7  1  0  0  0  0
  5 10  1  0  0  0  0
  6  7  1  0  0  0  0
  6 12  2  0  0  0  0
  6 11  2  0  0  0  0
  9 10  2  0  0  0  0
M  END
>  <COMPND>
    UNNAMED

>  <AUTHOR>
    GENERATED BY OPEN BABEL 2.4.90

>  <MASTER>
        0    0    0    0    0    0    0    0   12    0   12    0

