__4n1r_A_rec_4n1o_lsa_lig_min.pdb
 OpenBabel10201910323D

 12 13  0  0  0  0  0  0  0  0999 V2000
   19.6650  105.9960   23.6320 C   0  0  0  0  0  0  0  0  0  0  0  0
   21.0550  106.1950   23.4630 C   0  0  0  0  0  0  0  0  0  0  0  0
   21.5910  106.2340   22.1740 C   0  0  0  0  0  0  0  0  0  0  0  0
   21.6160  106.2200   19.8630 C   0  0  0  0  0  0  0  0  0  0  0  0
   18.8300  105.8950   22.4970 C   0  0  0  0  0  0  0  0  0  0  0  0
   23.1100  106.4420   21.6860 S   0  0  0  0  0  0  0  0  0  0  0  0
   22.9410  106.4360   20.1070 N   0  0  0  0  0  0  0  0  0  0  0  0
   21.1780  106.1490   18.6770 O   0  0  0  0  0  0  0  0  0  0  0  0
   20.6960  106.1420   21.0310 C   0  0  0  0  0  0  0  0  0  0  0  0
   19.3390  105.9430   21.2060 C   0  0  0  0  0  0  0  0  0  0  0  0
   23.8950  105.3050   22.1370 O   0  0  0  0  0  0  0  0  0  0  0  0
   23.7430  107.6310   22.2380 O   0  0  0  0  0  0  0  0  0  0  0  0
  1  5  2  0  0  0  0
  1  2  1  0  0  0  0
  2  3  2  0  0  0  0
  3  9  1  0  0  0  0
  3  6  1  0  0  0  0
  4  8  2  0  0  0  0
  4  9  1  0  0  0  0
  4  7  1  0  0  0  0
  5 10  1  0  0  0  0
  6  7  1  0  0  0  0
  6 12  2  0  0  0  0
  6 11  2  0  0  0  0
  9 10  2  0  0  0  0
M  END
>  <COMPND>
    UNNAMED

>  <AUTHOR>
    GENERATED BY OPEN BABEL 2.4.90

>  <MASTER>
        0    0    0    0    0    0    0    0   12    0   12    0

