__4n1s_A_rec_4n1o_lsa_lig_docked.pdb
 OpenBabel10201911463D

 12 13  0  0  0  0  0  0  0  0999 V2000
   -2.0470  108.8380   18.2930 C   0  0  0  0  0  0  0  0  0  0  0  0
   -1.3790  108.4020   19.4610 C   0  0  0  0  0  0  0  0  0  0  0  0
   -2.0430  108.4500   20.6890 C   0  0  0  0  0  0  0  0  0  0  0  0
   -3.7820  108.7940   22.1720 C   0  0  0  0  0  0  0  0  0  0  0  0
   -3.3930  109.2610   18.3730 C   0  0  0  0  0  0  0  0  0  0  0  0
   -1.5420  108.0280   22.1580 S   0  0  0  0  0  0  0  0  0  0  0  0
   -2.8440  108.2950   23.0280 N   0  0  0  0  0  0  0  0  0  0  0  0
   -4.9320  109.1200   22.5890 O   0  0  0  0  0  0  0  0  0  0  0  0
   -3.4330  108.8770   20.7270 C   0  0  0  0  0  0  0  0  0  0  0  0
   -4.0760  109.3040   19.5800 C   0  0  0  0  0  0  0  0  0  0  0  0
   -0.4570  108.9150   22.5440 O   0  0  0  0  0  0  0  0  0  0  0  0
   -1.0160  106.6720   22.2290 O   0  0  0  0  0  0  0  0  0  0  0  0
  1  5  2  0  0  0  0
  1  2  1  0  0  0  0
  2  3  2  0  0  0  0
  3  9  1  0  0  0  0
  3  6  1  0  0  0  0
  4  8  2  0  0  0  0
  4  9  1  0  0  0  0
  4  7  1  0  0  0  0
  5 10  1  0  0  0  0
  6  7  1  0  0  0  0
  6 12  2  0  0  0  0
  6 11  2  0  0  0  0
  9 10  2  0  0  0  0
M  END
>  <MODEL>
       1

>  <COMPND>
    UNNAMED

>  <AUTHOR>
    GENERATED BY OPEN BABEL 2.4.90

>  <MASTER>
        0    0    0    0    0    0    0    0   12    0   12    0

