__5noy_A_rec_4n1o_lsa_lig_docked.pdb
 OpenBabel10201911263D

 12 13  0  0  0  0  0  0  0  0999 V2000
   -2.9520  109.6310   19.1730 C   0  0  0  0  0  0  0  0  0  0  0  0
   -1.8540  109.1150   19.9010 C   0  0  0  0  0  0  0  0  0  0  0  0
   -2.0570  108.6210   21.1910 C   0  0  0  0  0  0  0  0  0  0  0  0
   -3.2210  108.0030   23.0900 C   0  0  0  0  0  0  0  0  0  0  0  0
   -4.2460  109.5880   19.7380 C   0  0  0  0  0  0  0  0  0  0  0  0
   -1.0130  107.9840   22.2360 S   0  0  0  0  0  0  0  0  0  0  0  0
   -1.9680  107.5970   23.4450 N   0  0  0  0  0  0  0  0  0  0  0  0
   -4.2030  107.8380   23.8730 O   0  0  0  0  0  0  0  0  0  0  0  0
   -3.4070  108.5800   21.7300 C   0  0  0  0  0  0  0  0  0  0  0  0
   -4.4740  109.0900   21.0130 C   0  0  0  0  0  0  0  0  0  0  0  0
   -0.0650  109.0160   22.6230 O   0  0  0  0  0  0  0  0  0  0  0  0
   -0.2320  106.8860   21.6860 O   0  0  0  0  0  0  0  0  0  0  0  0
  1  5  2  0  0  0  0
  1  2  1  0  0  0  0
  2  3  2  0  0  0  0
  3  9  1  0  0  0  0
  3  6  1  0  0  0  0
  4  8  2  0  0  0  0
  4  9  1  0  0  0  0
  4  7  1  0  0  0  0
  5 10  1  0  0  0  0
  6  7  1  0  0  0  0
  6 12  2  0  0  0  0
  6 11  2  0  0  0  0
  9 10  2  0  0  0  0
M  END
>  <MODEL>
       5

>  <COMPND>
    UNNAMED

>  <AUTHOR>
    GENERATED BY OPEN BABEL 2.4.90

>  <MASTER>
        0    0    0    0    0    0    0    0   12    0   12    0

