__5noz_A_rec_4n1s_wm4_lig_min.pdb
 OpenBabel10201909453D

 10 10  0  0  0  0  0  0  0  0999 V2000
   -0.6100  108.3140   22.0800 C   0  0  0  0  0  0  0  0  0  0  0  0
   -0.2780  109.3560   22.6280 O   0  0  0  0  0  0  0  0  0  0  0  0
   -0.1040  107.1010   22.3430 N   0  0  0  0  0  0  0  0  0  0  0  0
    0.8370  106.9660   23.3800 N   0  0  0  0  0  0  0  0  0  0  0  0
   -2.5650  107.2630   20.8050 C   0  0  0  0  0  0  0  0  0  0  0  0
   -3.5780  107.4100   19.8300 C   0  0  0  0  0  0  0  0  0  0  0  0
   -3.6980  108.5820   19.0610 C   0  0  0  0  0  0  0  0  0  0  0  0
   -2.8200  109.6030   19.3090 C   0  0  0  0  0  0  0  0  0  0  0  0
   -1.8360  109.5080   20.2660 C   0  0  0  0  0  0  0  0  0  0  0  0
   -1.7040  108.3680   21.0100 C   0  0  0  0  0  0  0  0  0  0  0  0
  1 10  1  0  0  0  0
  1  3  1  0  0  0  0
  1  2  2  0  0  0  0
  3  4  1  0  0  0  0
  5  6  2  0  0  0  0
  5 10  1  0  0  0  0
  6  7  1  0  0  0  0
  7  8  2  0  0  0  0
  8  9  1  0  0  0  0
  9 10  2  0  0  0  0
M  END
>  <COMPND>
    UNNAMED

>  <AUTHOR>
    GENERATED BY OPEN BABEL 2.4.90

>  <MASTER>
        0    0    0    0    0    0    0    0   10    0   10    0

