__5noz_A_rec_5noz_l99_lig_min.pdb
 OpenBabel10201909213D

 12 12  0  0  0  0  0  0  0  0999 V2000
    4.0320  107.0120   25.8070 C   0  0  0  0  0  0  0  0  0  0  0  0
    4.8470  107.7620   26.6470 C   0  0  0  0  0  0  0  0  0  0  0  0
    5.3860  108.9650   26.2050 C   0  0  0  0  0  0  0  0  0  0  0  0
    6.1790  109.6930   27.0270 N   0  0  0  0  0  0  0  0  0  0  0  0
    5.1120  109.4190   24.9260 C   0  0  0  0  0  0  0  0  0  0  0  0
    5.6390  110.5910   24.4970 N   0  0  0  0  0  0  0  0  0  0  0  0
    4.2980  108.6720   24.0830 C   0  0  0  0  0  0  0  0  0  0  0  0
    3.7590  107.4700   24.5220 C   0  0  0  0  0  0  0  0  0  0  0  0
    4.1590  104.9040   26.8770 O   0  0  0  0  0  0  0  0  0  0  0  0
    3.4560  105.7140   26.2960 C   0  0  0  0  0  0  0  0  0  0  0  0
    2.1610  105.5120   26.0570 N   0  0  0  0  0  0  0  0  0  0  0  0
    1.2670  106.5970   25.9370 N   0  0  0  0  0  0  0  0  0  0  0  0
  1  8  2  0  0  0  0
  1 10  1  0  0  0  0
  1  2  1  0  0  0  0
  2  3  2  0  0  0  0
  3  5  1  0  0  0  0
  3  4  1  0  0  0  0
  5  7  2  0  0  0  0
  5  6  1  0  0  0  0
  7  8  1  0  0  0  0
  9 10  2  0  0  0  0
 10 11  1  0  0  0  0
 11 12  1  0  0  0  0
M  END
>  <COMPND>
    UNNAMED

>  <AUTHOR>
    GENERATED BY OPEN BABEL 2.4.90

>  <MASTER>
        0    0    0    0    0    0    0    0   12    0   12    0

