__5ta4_A_rec_1w8m_e1p_lig_docked.pdb
 OpenBabel10201911383D

 13 13  0  0  0  0  0  0  0  0999 V2000
   -1.6540  105.2690   24.3260 C   0  0  0  0  0  0  0  0  0  0  0  0
   -1.5750  105.7760   25.7740 C   0  0  0  0  0  0  0  0  0  0  0  0
   -2.6690  106.8000   26.0800 C   0  0  0  0  0  0  0  0  0  0  0  0
   -2.6870  107.9640   25.0930 C   0  0  0  0  0  0  0  0  0  0  0  0
   -2.7300  107.4710   23.6590 C   0  0  0  0  0  0  0  0  0  0  0  0
   -1.6590  106.4670   23.4540 N   0  0  0  0  0  0  0  0  0  0  0  0
   -0.7370  106.6580   22.5220 C   0  0  0  0  0  0  0  0  0  0  0  0
    0.2010  105.8910   22.2930 O   0  0  0  0  0  0  0  0  0  0  0  0
   -0.8650  107.9430   21.7330 C   0  0  0  0  0  0  0  0  0  0  0  0
   -0.3190  108.9500   22.1530 O   0  0  0  0  0  0  0  0  0  0  0  0
   -1.5750  107.8660   20.5770 O   0  0  0  0  0  0  0  0  0  0  0  0
   -1.4610  108.9710   19.6570 C   0  0  0  0  0  0  0  0  0  0  0  0
   -2.7760  109.7450   19.5740 C   0  0  0  0  0  0  0  0  0  0  0  0
  1  6  1  0  0  0  0
  1  2  1  0  0  0  0
  2  3  1  0  0  0  0
  3  4  1  0  0  0  0
  4  5  1  0  0  0  0
  5  6  1  0  0  0  0
  6  7  1  0  0  0  0
  7  9  1  0  0  0  0
  7  8  2  0  0  0  0
  9 11  1  0  0  0  0
  9 10  2  0  0  0  0
 11 12  1  0  0  0  0
 12 13  1  0  0  0  0
M  END
>  <MODEL>
      11

>  <COMPND>
    UNNAMED

>  <AUTHOR>
    GENERATED BY OPEN BABEL 2.4.90

>  <MASTER>
        0    0    0    0    0    0    0    0   13    0   13    0

