__5ta4_A_rec_5ta4_838_lig_min.pdb
 OpenBabel10201909143D

 40 42  0  0  1  0  0  0  0  0999 V2000
   -1.3710  108.1590   20.7650 N   0  0  0  0  0  0  0  0  0  0  0  0
   -2.0950  107.0010   20.3710 N   0  0  0  0  0  0  0  0  0  0  0  0
   -3.5610  108.4830   19.0140 C   0  0  0  0  0  0  0  0  0  0  0  0
   -2.7090  109.6800   19.4330 C   0  0  0  0  0  0  0  0  0  0  0  0
   -1.2960  109.1940   19.7300 C   0  0  0  0  0  0  0  0  0  0  0  0
   -3.4940  107.3640   20.0600 C   0  0  1  0  0  0  0  0  0  0  0  0
    1.0710  104.3200   26.4930 C   0  0  0  0  0  0  0  0  0  0  0  0
    0.9570  102.8590   26.9570 C   0  0  2  0  0  0  0  0  0  0  0  0
    2.2090  102.5260   27.7800 C   0  0  0  0  0  0  0  0  0  0  0  0
    0.6880  101.8580   25.7950 C   0  0  1  0  0  0  0  0  0  0  0  0
   -0.6730  101.9410   25.0520 C   0  0  0  0  0  0  0  0  0  0  0  0
   -0.9530  103.2470   24.2790 C   0  0  0  0  0  0  0  0  0  0  0  0
   -4.1540  106.1200   19.4920 C   0  0  0  0  0  0  0  0  0  0  0  0
   -6.0590  104.6930   19.8440 C   0  0  1  0  0  0  0  0  0  0  0  0
   -5.3310  103.4130   20.2490 C   0  0  0  0  0  0  0  0  0  0  0  0
   -4.3620  103.3900   21.2980 C   0  0  0  0  0  0  0  0  0  0  0  0
   -3.6950  102.2030   21.6800 C   0  0  0  0  0  0  0  0  0  0  0  0
   -4.0040  101.0110   21.0080 C   0  0  0  0  0  0  0  0  0  0  0  0
   -4.9500  101.0180   19.9790 C   0  0  0  0  0  0  0  0  0  0  0  0
   -5.6060  102.1950   19.6160 C   0  0  0  0  0  0  0  0  0  0  0  0
   -2.6950  102.1980   22.7650 C   0  0  0  0  0  0  0  0  0  0  0  0
   -1.9740  103.2530   23.1710 C   0  0  0  0  0  0  0  0  0  0  0  0
   -7.4060  104.9130   20.5190 C   0  0  0  0  0  0  0  0  0  0  0  0
    0.4500  105.2280   27.0280 O   0  0  0  0  0  0  0  0  0  0  0  0
   -3.7270  105.4620   18.5610 O   0  0  0  0  0  0  0  0  0  0  0  0
   -5.2790  105.8610   20.2020 O   0  0  0  0  0  0  0  0  0  0  0  0
    1.9020  104.5100   25.4070 N   0  0  0  0  0  0  0  0  0  0  0  0
    2.1390  105.8070   24.7790 C   0  0  2  0  0  0  0  0  0  0  0  0
    1.1340  105.9480   23.6520 C   0  0  0  0  0  0  0  0  0  0  0  0
    1.2380  105.3170   22.6030 O   0  0  0  0  0  0  0  0  0  0  0  0
    0.0710  106.7770   23.8730 N   0  0  0  0  0  0  0  0  0  0  0  0
   -1.0370  106.9910   22.9500 C   0  0  2  0  0  0  0  0  0  0  0  0
   -0.8270  108.1790   22.0250 C   0  0  0  0  0  0  0  0  0  0  0  0
   -0.1980  109.1690   22.4260 O   0  0  0  0  0  0  0  0  0  0  0  0
   -2.3500  107.1060   23.7030 C   0  0  0  0  0  0  0  0  0  0  0  0
    3.5920  106.0730   24.3660 C   0  0  0  0  0  0  0  0  0  0  0  0
    3.8150  107.5640   24.0920 C   0  0  0  0  0  0  0  0  0  0  0  0
    4.5800  105.5990   25.4350 C   0  0  0  0  0  0  0  0  0  0  0  0
    2.2960  100.5230   24.5370 C   0  0  0  0  0  0  0  0  0  0  0  0
    1.8260  101.8080   24.9180 O   0  0  0  0  0  0  0  0  0  0  0  0
  1  5  1  0  0  0  0
  1  2  1  0  0  0  0
  1 33  1  0  0  0  0
  2  6  1  0  0  0  0
  3  4  1  0  0  0  0
  4  5  1  0  0  0  0
  6  3  1  6  0  0  0
  6 13  1  0  0  0  0
  7 27  1  0  0  0  0
  7 24  2  0  0  0  0
  7  8  1  0  0  0  0
  8 10  1  0  0  0  0
  8  9  1  6  0  0  0
 10 40  1  6  0  0  0
 10 11  1  0  0  0  0
 11 12  1  0  0  0  0
 12 22  1  0  0  0  0
 13 25  2  0  0  0  0
 13 26  1  0  0  0  0
 14 26  1  0  0  0  0
 14 15  1  0  0  0  0
 14 23  1  1  0  0  0
 15 20  2  0  0  0  0
 15 16  1  0  0  0  0
 16 17  2  0  0  0  0
 17 18  1  0  0  0  0
 17 21  1  0  0  0  0
 18 19  2  0  0  0  0
 19 20  1  0  0  0  0
 21 22  2  0  0  0  0
 27 28  1  0  0  0  0
 28 29  1  0  0  0  0
 28 36  1  6  0  0  0
 29 30  2  0  0  0  0
 29 31  1  0  0  0  0
 31 32  1  0  0  0  0
 32 33  1  0  0  0  0
 32 35  1  1  0  0  0
 33 34  2  0  0  0  0
 36 37  1  0  0  0  0
 36 38  1  0  0  0  0
 39 40  1  0  0  0  0
M  END
>  <COMPND>
    UNNAMED

>  <AUTHOR>
    GENERATED BY OPEN BABEL 2.4.90

>  <MASTER>
        0    0    0    0    0    0    0    0   40    0   40    0

