__3uf9_C_rec_3uf9_fst_lig_docked.pdb
 OpenBabel10201905513D

 18 18  0  0  0  0  0  0  0  0999 V2000
   65.0170   -4.8270  -67.5160 O   0  0  0  0  0  0  0  0  0  0  0  0
   64.0980   -8.8360  -68.1130 C   0  0  0  0  0  0  0  0  0  0  0  0
   64.7220   -8.4340  -66.9370 C   0  0  0  0  0  0  0  0  0  0  0  0
   65.0320   -7.0930  -66.7330 C   0  0  0  0  0  0  0  0  0  0  0  0
   64.7150   -6.1510  -67.7060 C   0  0  0  0  0  0  0  0  0  0  0  0
   64.0940   -6.5530  -68.8830 C   0  0  0  0  0  0  0  0  0  0  0  0
   63.7850   -7.8920  -69.0870 C   0  0  0  0  0  0  0  0  0  0  0  0
   62.0990  -10.5460  -68.5500 C   0  0  0  0  0  0  0  0  0  0  0  0
   63.7410  -10.3730  -68.3540 S   0  0  1  0  0  0  0  0  0  0  0  0
   64.5120  -10.9070  -69.6940 O   0  0  0  0  0  0  0  0  0  0  0  0
   65.7660   -3.9830  -68.6650 P   0  0  0  0  0  0  0  0  0  0  0  0
   66.8030   -5.1020  -69.8770 S   0  0  0  0  0  0  0  0  0  0  0  0
   64.5990   -3.1320  -69.3810 O   0  0  0  0  0  0  0  0  0  0  0  0
   64.2920   -3.3060  -70.7620 C   0  0  0  0  0  0  0  0  0  0  0  0
   62.7900   -3.3130  -70.9400 C   0  0  0  0  0  0  0  0  0  0  0  0
   66.6800   -2.9050  -67.8910 O   0  0  0  0  0  0  0  0  0  0  0  0
   67.9030   -3.3060  -67.2780 C   0  0  0  0  0  0  0  0  0  0  0  0
   68.3910   -2.2050  -66.3620 C   0  0  0  0  0  0  0  0  0  0  0  0
  1 11  1  0  0  0  0
  1  5  1  0  0  0  0
  2  3  2  0  0  0  0
  2  9  1  0  0  0  0
  2  7  1  0  0  0  0
  3  4  1  0  0  0  0
  4  5  2  0  0  0  0
  5  6  1  0  0  0  0
  6  7  2  0  0  0  0
  9  8  1  6  0  0  0
  9 10  2  0  0  0  0
 11 12  1  0  0  0  0
 11 13  1  0  0  0  0
 11 16  1  0  0  0  0
 13 14  1  0  0  0  0
 14 15  1  0  0  0  0
 16 17  1  0  0  0  0
 17 18  1  0  0  0  0
M  END
>  <MODEL>
       1

>  <COMPND>
    UNNAMED

>  <AUTHOR>
    GENERATED BY OPEN BABEL 2.4.90

>  <MASTER>
        0    0    0    0    0    0    0    0   18    0   18    0

