__2d5c_A_rec_2d5c_skm_lig_docked.pdb
 OpenBabel10171921233D

 12 12  0  0  1  0  0  0  0  0999 V2000
   24.3340   13.3650   18.1550 O   0  0  0  0  0  0  0  0  0  0  0  0
   25.4290   14.0820   18.7440 C   0  0  1  0  0  0  0  0  0  0  0  0
   25.3410   13.9810   20.2920 C   0  0  2  0  0  0  0  0  0  0  0  0
   24.0990   14.5330   20.7240 O   0  0  0  0  0  0  0  0  0  0  0  0
   26.5050   14.7490   20.9710 C   0  0  0  0  0  0  0  0  0  0  0  0
   27.8350   14.6030   20.2300 C   0  0  0  0  0  0  0  0  0  0  0  0
   27.9500   14.0520   19.0180 C   0  0  0  0  0  0  0  0  0  0  0  0
   26.7800   13.4950   18.2340 C   0  0  1  0  0  0  0  0  0  0  0  0
   26.7680   12.0660   18.3860 O   0  0  0  0  0  0  0  0  0  0  0  0
   29.0590   15.1060   20.9050 C   0  0  0  0  0  0  0  0  0  0  0  0
   29.4180   16.3960   20.7620 O   0  0  0  0  0  0  0  0  0  0  0  0
   29.7450   14.3610   21.5930 O   0  0  0  0  0  0  0  0  0  0  0  0
  2  1  1  6  0  0  0
  2  8  1  0  0  0  0
  2  3  1  0  0  0  0
  3  4  1  1  0  0  0
  3  5  1  0  0  0  0
  5  6  1  0  0  0  0
  6  7  2  0  0  0  0
  6 10  1  0  0  0  0
  7  8  1  0  0  0  0
  8  9  1  1  0  0  0
 10 12  2  0  0  0  0
 10 11  1  0  0  0  0
M  END
>  <MODEL>
       2

>  <COMPND>
    UNNAMED

>  <AUTHOR>
    GENERATED BY OPEN BABEL 2.4.90

>  <MASTER>
        0    0    0    0    0    0    0    0   12    0   12    0

