__1fv0_B_rec_1oyf_mhn_lig_min.pdb
 OpenBabel10201903523D

  9  8  0  0  0  0  0  0  0  0999 V2000
    1.7550  -20.4970   -2.5110 C   0  0  0  0  0  0  0  0  0  0  0  0
    1.0540  -19.3460   -3.2420 C   0  0  0  0  0  0  0  0  0  0  0  0
   -0.4380  -17.5680   -3.3800 O   0  0  0  0  0  0  0  0  0  0  0  0
    0.4200  -18.2340   -2.4500 C   0  0  0  0  0  0  0  0  0  0  0  0
    3.1350  -20.2760   -3.0720 C   0  0  0  0  0  0  0  0  0  0  0  0
    4.1300  -21.3900   -3.3590 C   0  0  0  0  0  0  0  0  0  0  0  0
    4.2170  -21.5590   -4.9230 C   0  0  0  0  0  0  0  0  0  0  0  0
    4.3540  -20.1690   -5.6020 C   0  0  0  0  0  0  0  0  0  0  0  0
    5.4290  -22.3800   -5.3700 C   0  0  0  0  0  0  0  0  0  0  0  0
  1  5  1  0  0  0  0
  1  2  1  0  0  0  0
  2  4  1  0  0  0  0
  3  4  1  0  0  0  0
  5  6  1  0  0  0  0
  6  7  1  0  0  0  0
  7  8  1  0  0  0  0
  7  9  1  0  0  0  0
M  END
>  <COMPND>
    UNNAMED

>  <AUTHOR>
    GENERATED BY OPEN BABEL 2.4.90

>  <MASTER>
        0    0    0    0    0    0    0    0    9    0    9    0

