__1fv0_A_rec_1fv0_9ar_lig_min.pdb
 OpenBabel10201907303D

 26 29  0  0  0  0  0  0  0  0999 V2000
    5.2170  -20.9230   -7.3410 C   0  0  0  0  0  0  0  0  0  0  0  0
    5.7370  -21.9090   -6.4770 C   0  0  0  0  0  0  0  0  0  0  0  0
    5.2310  -22.1160   -5.2000 C   0  0  0  0  0  0  0  0  0  0  0  0
    4.1570  -21.3430   -4.6950 C   0  0  0  0  0  0  0  0  0  0  0  0
    3.5340  -20.2830   -5.5160 C   0  0  0  0  0  0  0  0  0  0  0  0
    4.0960  -20.0790   -6.8970 C   0  0  0  0  0  0  0  0  0  0  0  0
    2.4300  -19.4460   -5.0580 C   0  0  0  0  0  0  0  0  0  0  0  0
    1.9000  -18.4030   -5.9670 C   0  0  0  0  0  0  0  0  0  0  0  0
    2.4620  -18.2510   -7.2550 C   0  0  0  0  0  0  0  0  0  0  0  0
    3.5150  -19.0590   -7.7380 C   0  0  0  0  0  0  0  0  0  0  0  0
    1.8120  -19.5520   -3.7610 C   0  0  0  0  0  0  0  0  0  0  0  0
    0.7630  -18.7180   -3.3660 C   0  0  0  0  0  0  0  0  0  0  0  0
    0.2720  -17.7330   -4.2260 C   0  0  0  0  0  0  0  0  0  0  0  0
    0.8240  -17.5410   -5.5510 C   0  0  0  0  0  0  0  0  0  0  0  0
    4.8380  -22.8420   -3.1650 C   0  0  0  0  0  0  0  0  0  0  0  0
    5.6830  -23.0390   -4.3130 O   0  0  0  0  0  0  0  0  0  0  0  0
    3.8960  -21.7820   -3.4250 O   0  0  0  0  0  0  0  0  0  0  0  0
   -0.7890  -16.9190   -3.7530 O   0  0  0  0  0  0  0  0  0  0  0  0
    5.8330  -20.9630   -8.7460 C   0  0  0  0  0  0  0  0  0  0  0  0
    7.0350  -20.9320   -9.0060 O   0  0  0  0  0  0  0  0  0  0  0  0
    5.3120  -21.5210   -9.7060 O   0  0  0  0  0  0  0  0  0  0  0  0
    4.4100  -18.4850   -9.9860 O   0  0  0  0  0  0  0  0  0  0  0  0
    2.7870  -19.7460   -9.6650 O   0  0  0  0  0  0  0  0  0  0  0  0
    3.6250  -18.8850   -9.3850 N   0  0  0  0  0  0  0  0  0  0  0  0
    0.7840  -15.1140   -7.0550 C   0  0  0  0  0  0  0  0  0  0  0  0
    0.6920  -16.3540   -6.2390 O   0  0  0  0  0  0  0  0  0  0  0  0
  1 19  1  0  0  0  0
  1  6  2  0  0  0  0
  1  2  1  0  0  0  0
  2  3  2  0  0  0  0
  3  4  1  0  0  0  0
  3 16  1  0  0  0  0
  4  5  2  0  0  0  0
  4 17  1  0  0  0  0
  5  6  1  0  0  0  0
  5  7  1  0  0  0  0
  6 10  1  0  0  0  0
  7  8  2  0  0  0  0
  7 11  1  0  0  0  0
  8  9  1  0  0  0  0
  8 14  1  0  0  0  0
  9 10  2  0  0  0  0
 10 24  1  0  0  0  0
 11 12  2  0  0  0  0
 12 13  1  0  0  0  0
 13 14  2  0  0  0  0
 13 18  1  0  0  0  0
 14 26  1  0  0  0  0
 15 16  1  0  0  0  0
 15 17  1  0  0  0  0
 19 20  2  0  0  0  0
 19 21  1  0  0  0  0
 22 24  2  0  0  0  0
 23 24  2  0  0  0  0
 25 26  1  0  0  0  0
M  END
>  <COMPND>
    UNNAMED

>  <AUTHOR>
    GENERATED BY OPEN BABEL 2.4.90

>  <MASTER>
        0    0    0    0    0    0    0    0   26    0   26    0

