__1kpm_A_rec_1y38_g3p_lig_it2_docked.pdb
 OpenBabel10201912183D

 10  9  0  0  1  0  0  0  0  0999 V2000
    1.6160  -19.7080   -3.0200 C   0  0  0  0  0  0  0  0  0  0  0  0
    0.4270  -19.0430   -3.7200 C   0  0  2  0  0  0  0  0  0  0  0  0
    0.6390  -19.1750   -5.1210 O   0  0  0  0  0  0  0  0  0  0  0  0
   -0.0240  -16.8160   -4.5230 O   0  0  0  0  0  0  0  0  0  0  0  0
    0.2560  -17.5700   -3.3480 C   0  0  0  0  0  0  0  0  0  0  0  0
    2.5980  -20.5840   -3.6600 O   0  0  0  0  0  0  0  0  0  0  0  0
    3.5930  -22.7880   -4.5920 O   0  0  0  0  0  0  0  0  0  0  0  0
    4.4270  -20.6940   -5.4590 O   0  0  0  0  0  0  0  0  0  0  0  0
    2.1320  -21.4760   -6.0350 O   0  0  0  0  0  0  0  0  0  0  0  0
    3.1820  -21.3730   -4.9390 P   0  0  0  0  0  0  0  0  0  0  0  0
  1  2  1  0  0  0  0
  1  6  1  0  0  0  0
  2  3  1  6  0  0  0
  2  5  1  0  0  0  0
  4  5  1  0  0  0  0
  6 10  1  0  0  0  0
  7 10  2  0  0  0  0
  8 10  1  0  0  0  0
  9 10  1  0  0  0  0
M  END
>  <MODEL>
       8

>  <COMPND>
    UNNAMED

>  <AUTHOR>
    GENERATED BY OPEN BABEL 2.4.90

>  <MASTER>
        0    0    0    0    0    0    0    0   10    0   10    0

