__1kpm_A_rec_1y38_g3p_lig_it2_docked.pdb
 OpenBabel10201912183D

 10  9  0  0  1  0  0  0  0  0999 V2000
    1.6770  -19.8330   -2.9340 C   0  0  0  0  0  0  0  0  0  0  0  0
    0.5180  -19.1600   -3.6740 C   0  0  2  0  0  0  0  0  0  0  0  0
    0.7960  -19.2600   -5.0660 O   0  0  0  0  0  0  0  0  0  0  0  0
   -0.0920  -16.9500   -4.4200 O   0  0  0  0  0  0  0  0  0  0  0  0
    0.3210  -17.6950   -3.2790 C   0  0  0  0  0  0  0  0  0  0  0  0
    2.6050  -20.8050   -3.5120 O   0  0  0  0  0  0  0  0  0  0  0  0
    3.6470  -22.9500   -4.5280 O   0  0  0  0  0  0  0  0  0  0  0  0
    4.6980  -20.8280   -5.0000 O   0  0  0  0  0  0  0  0  0  0  0  0
    2.4990  -21.4020   -6.0200 O   0  0  0  0  0  0  0  0  0  0  0  0
    3.3580  -21.4830   -4.7670 P   0  0  0  0  0  0  0  0  0  0  0  0
  1  2  1  0  0  0  0
  1  6  1  0  0  0  0
  2  3  1  6  0  0  0
  2  5  1  0  0  0  0
  4  5  1  0  0  0  0
  6 10  1  0  0  0  0
  7 10  2  0  0  0  0
  8 10  1  0  0  0  0
  9 10  1  0  0  0  0
M  END
>  <MODEL>
       7

>  <COMPND>
    UNNAMED

>  <AUTHOR>
    GENERATED BY OPEN BABEL 2.4.90

>  <MASTER>
        0    0    0    0    0    0    0    0   10    0   10    0

