__1oxl_A_rec_1fv0_9ar_lig_docked.pdb
 OpenBabel10201907043D

 26 29  0  0  0  0  0  0  0  0999 V2000
    4.8640  -21.0360   -7.5880 C   0  0  0  0  0  0  0  0  0  0  0  0
    5.3840  -22.0200   -6.7210 C   0  0  0  0  0  0  0  0  0  0  0  0
    4.9440  -22.1580   -5.4100 C   0  0  0  0  0  0  0  0  0  0  0  0
    3.9440  -21.3130   -4.8720 C   0  0  0  0  0  0  0  0  0  0  0  0
    3.3290  -20.2470   -5.6920 C   0  0  0  0  0  0  0  0  0  0  0  0
    3.8170  -20.1190   -7.1100 C   0  0  0  0  0  0  0  0  0  0  0  0
    2.3000  -19.3370   -5.2010 C   0  0  0  0  0  0  0  0  0  0  0  0
    1.7720  -18.2970   -6.1140 C   0  0  0  0  0  0  0  0  0  0  0  0
    2.2630  -18.2170   -7.4370 C   0  0  0  0  0  0  0  0  0  0  0  0
    3.2410  -19.0960   -7.9510 C   0  0  0  0  0  0  0  0  0  0  0  0
    1.7560  -19.3680   -3.8680 C   0  0  0  0  0  0  0  0  0  0  0  0
    0.7770  -18.4660   -3.4420 C   0  0  0  0  0  0  0  0  0  0  0  0
    0.2880  -17.4840   -4.3060 C   0  0  0  0  0  0  0  0  0  0  0  0
    0.7680  -17.3650   -5.6670 C   0  0  0  0  0  0  0  0  0  0  0  0
    4.6360  -22.7960   -3.3320 C   0  0  0  0  0  0  0  0  0  0  0  0
    5.3990  -23.0760   -4.5190 O   0  0  0  0  0  0  0  0  0  0  0  0
    3.7370  -21.6960   -3.5740 O   0  0  0  0  0  0  0  0  0  0  0  0
   -0.7000  -16.6000   -3.8020 O   0  0  0  0  0  0  0  0  0  0  0  0
    5.3930  -21.1540   -9.0240 C   0  0  0  0  0  0  0  0  0  0  0  0
    6.5560  -21.3910   -9.3450 O   0  0  0  0  0  0  0  0  0  0  0  0
    4.7140  -21.5310   -9.9730 O   0  0  0  0  0  0  0  0  0  0  0  0
    2.5910  -19.3770  -10.3350 O   0  0  0  0  0  0  0  0  0  0  0  0
    3.9660  -17.9700   -9.6600 O   0  0  0  0  0  0  0  0  0  0  0  0
    3.2620  -18.9810   -9.6070 N   0  0  0  0  0  0  0  0  0  0  0  0
    0.7840  -14.9570   -7.2020 C   0  0  0  0  0  0  0  0  0  0  0  0
    0.6580  -16.1960   -6.3880 O   0  0  0  0  0  0  0  0  0  0  0  0
  1 19  1  0  0  0  0
  1  6  2  0  0  0  0
  1  2  1  0  0  0  0
  2  3  2  0  0  0  0
  3  4  1  0  0  0  0
  3 16  1  0  0  0  0
  4  5  2  0  0  0  0
  4 17  1  0  0  0  0
  5  6  1  0  0  0  0
  5  7  1  0  0  0  0
  6 10  1  0  0  0  0
  7  8  2  0  0  0  0
  7 11  1  0  0  0  0
  8  9  1  0  0  0  0
  8 14  1  0  0  0  0
  9 10  2  0  0  0  0
 10 24  1  0  0  0  0
 11 12  2  0  0  0  0
 12 13  1  0  0  0  0
 13 14  2  0  0  0  0
 13 18  1  0  0  0  0
 14 26  1  0  0  0  0
 15 16  1  0  0  0  0
 15 17  1  0  0  0  0
 19 20  2  0  0  0  0
 19 21  1  0  0  0  0
 22 24  2  0  0  0  0
 23 24  2  0  0  0  0
 25 26  1  0  0  0  0
M  END
>  <MODEL>
       2

>  <COMPND>
    UNNAMED

>  <AUTHOR>
    GENERATED BY OPEN BABEL 2.4.90

>  <MASTER>
        0    0    0    0    0    0    0    0   26    0   26    0

