__1q6v_A_rec_1sv3_ann_lig_docked.pdb
 OpenBabel10201905323D

 11 11  0  0  0  0  0  0  0  0999 V2000
    4.8000  -20.9570   -6.3650 C   0  0  0  0  0  0  0  0  0  0  0  0
    4.0880  -19.7650   -6.3120 C   0  0  0  0  0  0  0  0  0  0  0  0
    3.1780  -19.5160   -5.2880 C   0  0  0  0  0  0  0  0  0  0  0  0
    2.9710  -20.4660   -4.2940 C   0  0  0  0  0  0  0  0  0  0  0  0
    3.6730  -21.6610   -4.3440 C   0  0  0  0  0  0  0  0  0  0  0  0
    4.5880  -21.9090   -5.3670 C   0  0  0  0  0  0  0  0  0  0  0  0
    1.9960  -20.2170   -3.1760 C   0  0  0  0  0  0  0  0  0  0  0  0
    1.0790  -19.4120   -3.2870 O   0  0  0  0  0  0  0  0  0  0  0  0
    2.1320  -20.8920   -2.0500 O   0  0  0  0  0  0  0  0  0  0  0  0
    5.3080  -21.2180   -8.7810 C   0  0  0  0  0  0  0  0  0  0  0  0
    5.6900  -21.1600   -7.4020 O   0  0  0  0  0  0  0  0  0  0  0  0
  1 11  1  0  0  0  0
  1  6  2  0  0  0  0
  1  2  1  0  0  0  0
  2  3  2  0  0  0  0
  3  4  1  0  0  0  0
  4  5  2  0  0  0  0
  4  7  1  0  0  0  0
  5  6  1  0  0  0  0
  7  8  2  0  0  0  0
  7  9  1  0  0  0  0
 10 11  1  0  0  0  0
M  END
>  <MODEL>
      14

>  <COMPND>
    UNNAMED

>  <AUTHOR>
    GENERATED BY OPEN BABEL 2.4.90

>  <MASTER>
        0    0    0    0    0    0    0    0   11    0   11    0

