__1sqz_A_rec_4qer_stl_lig_docked.pdb
 OpenBabel10201906153D

 17 18  0  0  0  0  0  0  0  0999 V2000
    7.3480  -21.8410   -7.2120 C   0  0  0  0  0  0  0  0  0  0  0  0
    8.4480  -21.9310   -6.3700 C   0  0  0  0  0  0  0  0  0  0  0  0
    8.3550  -21.4680   -5.0370 C   0  0  0  0  0  0  0  0  0  0  0  0
    7.1390  -20.8910   -4.5370 C   0  0  0  0  0  0  0  0  0  0  0  0
    6.0190  -20.8230   -5.3960 C   0  0  0  0  0  0  0  0  0  0  0  0
    6.1080  -21.3080   -6.7330 C   0  0  0  0  0  0  0  0  0  0  0  0
    9.4910  -21.5580   -4.2590 O   0  0  0  0  0  0  0  0  0  0  0  0
    7.5400  -22.3130   -8.4700 O   0  0  0  0  0  0  0  0  0  0  0  0
    4.7300  -20.3030   -4.9190 C   0  0  0  0  0  0  0  0  0  0  0  0
    3.8930  -20.7410   -3.9990 C   0  0  0  0  0  0  0  0  0  0  0  0
    2.6960  -19.8870   -3.7360 C   0  0  0  0  0  0  0  0  0  0  0  0
    2.1630  -19.1290   -4.8020 C   0  0  0  0  0  0  0  0  0  0  0  0
    0.9930  -18.3370   -4.5320 C   0  0  0  0  0  0  0  0  0  0  0  0
    0.4420  -18.2470   -3.2240 C   0  0  0  0  0  0  0  0  0  0  0  0
    0.9980  -18.9770   -2.1550 C   0  0  0  0  0  0  0  0  0  0  0  0
    2.1070  -19.8190   -2.4540 C   0  0  0  0  0  0  0  0  0  0  0  0
   -0.6830  -17.4820   -3.0530 O   0  0  0  0  0  0  0  0  0  0  0  0
  1  2  2  0  0  0  0
  1  6  1  0  0  0  0
  1  8  1  0  0  0  0
  2  3  1  0  0  0  0
  3  7  1  0  0  0  0
  3  4  2  0  0  0  0
  4  5  1  0  0  0  0
  5  9  1  0  0  0  0
  5  6  2  0  0  0  0
  9 10  2  0  0  0  0
 10 11  1  0  0  0  0
 11 16  2  0  0  0  0
 11 12  1  0  0  0  0
 12 13  2  0  0  0  0
 13 14  1  0  0  0  0
 14 15  2  0  0  0  0
 14 17  1  0  0  0  0
 15 16  1  0  0  0  0
M  END
>  <MODEL>
       8

>  <COMPND>
    UNNAMED

>  <AUTHOR>
    GENERATED BY OPEN BABEL 2.4.90

>  <MASTER>
        0    0    0    0    0    0    0    0   17    0   17    0

