__1sqz_A_rec_2qu9_eug_lig_min.pdb
 OpenBabel10201902183D

 11 11  0  0  0  0  0  0  0  0999 V2000
    4.9250  -21.0180   -5.6390 C   0  0  0  0  0  0  0  0  0  0  0  0
    3.9930  -19.9860   -5.4860 C   0  0  0  0  0  0  0  0  0  0  0  0
    3.2670  -19.8260   -4.3020 C   0  0  0  0  0  0  0  0  0  0  0  0
    3.5270  -20.7880   -3.1870 C   0  0  0  0  0  0  0  0  0  0  0  0
    4.4770  -21.7950   -3.3820 C   0  0  0  0  0  0  0  0  0  0  0  0
    5.1640  -21.9150   -4.5960 C   0  0  0  0  0  0  0  0  0  0  0  0
    2.8620  -20.6770   -1.9980 O   0  0  0  0  0  0  0  0  0  0  0  0
    5.6650  -21.1210   -6.9210 C   0  0  0  0  0  0  0  0  0  0  0  0
    6.6970  -21.9510   -7.0270 C   0  0  0  0  0  0  0  0  0  0  0  0
    0.9600  -19.0570   -3.8680 C   0  0  0  0  0  0  0  0  0  0  0  0
    2.3380  -18.7960   -4.1790 O   0  0  0  0  0  0  0  0  0  0  0  0
  1  2  2  0  0  0  0
  1  8  1  0  0  0  0
  1  6  1  0  0  0  0
  2  3  1  0  0  0  0
  3 11  1  0  0  0  0
  3  4  2  0  0  0  0
  4  7  1  0  0  0  0
  4  5  1  0  0  0  0
  5  6  2  0  0  0  0
  8  9  2  0  0  0  0
 10 11  1  0  0  0  0
M  END
>  <COMPND>
    UNNAMED

>  <AUTHOR>
    GENERATED BY OPEN BABEL 2.4.90

>  <MASTER>
        0    0    0    0    0    0    0    0   11    0   11    0

