__1sv9_A_rec_4qem_hc4_lig_min.pdb
 OpenBabel10201903313D

 12 12  0  0  0  0  0  0  0  0999 V2000
    2.7960  -19.7580   -4.3630 C   0  0  0  0  0  0  0  0  0  0  0  0
    2.0130  -20.0440   -3.2270 C   0  0  0  0  0  0  0  0  0  0  0  0
    0.8870  -19.2190   -2.9550 C   0  0  0  0  0  0  0  0  0  0  0  0
    0.5410  -18.2010   -3.8730 C   0  0  0  0  0  0  0  0  0  0  0  0
    1.2990  -17.9310   -5.0250 C   0  0  0  0  0  0  0  0  0  0  0  0
    2.4620  -18.7040   -5.2340 C   0  0  0  0  0  0  0  0  0  0  0  0
   -0.5450  -17.4580   -3.5420 O   0  0  0  0  0  0  0  0  0  0  0  0
    5.1810  -19.9930   -4.5940 C   0  0  0  0  0  0  0  0  0  0  0  0
    4.0020  -20.6040   -4.5970 C   0  0  0  0  0  0  0  0  0  0  0  0
    6.4600  -20.6830   -4.8030 C   0  0  0  0  0  0  0  0  0  0  0  0
    7.5170  -20.1310   -4.3720 O   0  0  0  0  0  0  0  0  0  0  0  0
    6.4840  -21.8520   -5.3450 O   0  0  0  0  0  0  0  0  0  0  0  0
  1  6  2  0  0  0  0
  1  9  1  0  0  0  0
  1  2  1  0  0  0  0
  2  3  2  0  0  0  0
  3  4  1  0  0  0  0
  4  5  2  0  0  0  0
  4  7  1  0  0  0  0
  5  6  1  0  0  0  0
  8 10  1  0  0  0  0
  8  9  2  0  0  0  0
 10 12  2  0  0  0  0
 10 11  1  0  0  0  0
M  END
>  <COMPND>
    UNNAMED

>  <AUTHOR>
    GENERATED BY OPEN BABEL 2.4.90

>  <MASTER>
        0    0    0    0    0    0    0    0   12    0   12    0

