__1sv9_A_rec_2qu9_eug_lig_min.pdb
 OpenBabel10201904533D

 11 11  0  0  0  0  0  0  0  0999 V2000
    2.8640  -19.8470   -4.4090 C   0  0  0  0  0  0  0  0  0  0  0  0
    2.4660  -18.8190   -5.2710 C   0  0  0  0  0  0  0  0  0  0  0  0
    1.3540  -18.0190   -4.9920 C   0  0  0  0  0  0  0  0  0  0  0  0
    0.6010  -18.2850   -3.7280 C   0  0  0  0  0  0  0  0  0  0  0  0
    1.0420  -19.3160   -2.8920 C   0  0  0  0  0  0  0  0  0  0  0  0
    2.1560  -20.0930   -3.2310 C   0  0  0  0  0  0  0  0  0  0  0  0
   -0.4860  -17.5300   -3.3900 O   0  0  0  0  0  0  0  0  0  0  0  0
    4.0600  -20.6500   -4.7650 C   0  0  0  0  0  0  0  0  0  0  0  0
    5.2630  -20.0880   -4.7550 C   0  0  0  0  0  0  0  0  0  0  0  0
    1.7050  -15.7730   -5.9580 C   0  0  0  0  0  0  0  0  0  0  0  0
    0.9760  -17.0080   -5.8720 O   0  0  0  0  0  0  0  0  0  0  0  0
  1  2  2  0  0  0  0
  1  8  1  0  0  0  0
  1  6  1  0  0  0  0
  2  3  1  0  0  0  0
  3 11  1  0  0  0  0
  3  4  2  0  0  0  0
  4  7  1  0  0  0  0
  4  5  1  0  0  0  0
  5  6  2  0  0  0  0
  8  9  2  0  0  0  0
 10 11  1  0  0  0  0
M  END
>  <COMPND>
    UNNAMED

>  <AUTHOR>
    GENERATED BY OPEN BABEL 2.4.90

>  <MASTER>
        0    0    0    0    0    0    0    0   11    0   11    0

