__1sv9_A_rec_1sv3_ann_lig_docked.pdb
 OpenBabel10201906253D

 11 11  0  0  0  0  0  0  0  0999 V2000
    5.6050  -20.7670   -5.4870 C   0  0  0  0  0  0  0  0  0  0  0  0
    5.3260  -21.4160   -4.2900 C   0  0  0  0  0  0  0  0  0  0  0  0
    4.1380  -21.1770   -3.6030 C   0  0  0  0  0  0  0  0  0  0  0  0
    3.2060  -20.2790   -4.1140 C   0  0  0  0  0  0  0  0  0  0  0  0
    3.4820  -19.6240   -5.3050 C   0  0  0  0  0  0  0  0  0  0  0  0
    4.6690  -19.8670   -5.9950 C   0  0  0  0  0  0  0  0  0  0  0  0
    1.9150  -20.0090   -3.3920 C   0  0  0  0  0  0  0  0  0  0  0  0
    1.8000  -20.1940   -2.1860 O   0  0  0  0  0  0  0  0  0  0  0  0
    0.8840  -19.5530   -4.0790 O   0  0  0  0  0  0  0  0  0  0  0  0
    6.8850  -21.5600   -7.4600 C   0  0  0  0  0  0  0  0  0  0  0  0
    6.7970  -21.0350   -6.1300 O   0  0  0  0  0  0  0  0  0  0  0  0
  1 11  1  0  0  0  0
  1  6  2  0  0  0  0
  1  2  1  0  0  0  0
  2  3  2  0  0  0  0
  3  4  1  0  0  0  0
  4  5  2  0  0  0  0
  4  7  1  0  0  0  0
  5  6  1  0  0  0  0
  7  8  2  0  0  0  0
  7  9  1  0  0  0  0
 10 11  1  0  0  0  0
M  END
>  <MODEL>
      11

>  <COMPND>
    UNNAMED

>  <AUTHOR>
    GENERATED BY OPEN BABEL 2.4.90

>  <MASTER>
        0    0    0    0    0    0    0    0   11    0   11    0

