__1tgm_A_rec_3fg5_ajm_lig_min.pdb
 OpenBabel10201904543D

 22 27  0  0  1  0  0  0  0  0999 V2000
   -5.8830  -14.4160   -7.6260 O   0  0  0  0  0  0  0  0  0  0  0  0
   -5.5420  -13.4440   -8.6260 C   0  0  1  0  0  0  0  0  0  0  0  0
   -6.1170  -12.0430   -8.3250 C   0  0  2  0  0  0  0  0  0  0  0  0
   -5.1350  -11.5110   -7.2900 C   0  0  0  0  0  0  0  0  0  0  0  0
   -7.5010  -11.8550   -7.7920 C   0  0  0  0  0  0  0  0  0  0  0  0
   -8.3370  -12.6240   -6.9510 C   0  0  0  0  0  0  0  0  0  0  0  0
   -9.6260  -12.1210   -6.6480 C   0  0  0  0  0  0  0  0  0  0  0  0
  -10.0820  -10.9030   -7.1800 C   0  0  0  0  0  0  0  0  0  0  0  0
   -7.9640  -10.5990   -8.3520 C   0  0  0  0  0  0  0  0  0  0  0  0
   -9.2700  -10.1130   -8.0260 C   0  0  0  0  0  0  0  0  0  0  0  0
   -4.0210  -13.1950   -8.6920 C   0  0  1  0  0  0  0  0  0  0  0  0
   -3.5270  -13.1240  -10.1940 C   0  0  2  0  0  0  0  0  0  0  0  0
   -2.1060  -12.4860  -10.2450 C   0  0  0  0  0  0  0  0  0  0  0  0
   -3.7700  -11.7910   -8.0120 C   0  0  1  0  0  0  0  0  0  0  0  0
   -3.5910  -10.7580   -9.1030 N   0  0  1  0  0  0  0  0  0  0  0  0
   -2.2310  -11.0290   -9.7000 C   0  0  1  0  0  0  0  0  0  0  0  0
   -1.2340  -10.8630   -8.6990 O   0  0  0  0  0  0  0  0  0  0  0  0
   -4.6880  -10.8960  -10.1570 C   0  0  1  0  0  0  0  0  0  0  0  0
   -4.4040  -12.1570  -11.0570 C   0  0  0  0  0  0  0  0  0  0  0  0
   -6.1070  -11.1400   -9.6290 C   0  0  2  0  0  0  0  0  0  0  0  0
   -6.9430  -10.0070   -9.1720 N   0  0  0  0  0  0  0  0  0  0  0  0
   -7.5550   -9.3860  -10.3660 C   0  0  0  0  0  0  0  0  0  0  0  0
  2  1  1  1  0  0  0
  2  3  1  0  0  0  0
  2 11  1  0  0  0  0
  3 20  1  0  0  0  0
  3  5  1  0  0  0  0
  3  4  1  1  0  0  0
  4 14  1  0  0  0  0
  5  9  2  0  0  0  0
  5  6  1  0  0  0  0
  6  7  2  0  0  0  0
  7  8  1  0  0  0  0
  8 10  2  0  0  0  0
  9 21  1  0  0  0  0
  9 10  1  0  0  0  0
 11 12  1  0  0  0  0
 11 14  1  0  0  0  0
 12 19  1  0  0  0  0
 12 13  1  0  0  0  0
 13 16  1  0  0  0  0
 14 15  1  0  0  0  0
 15 18  1  0  0  0  0
 15 16  1  0  0  0  0
 16 17  1  0  0  0  0
 18 19  1  0  0  0  0
 18 20  1  0  0  0  0
 20 21  1  0  0  0  0
 21 22  1  0  0  0  0
M  END
>  <COMPND>
    UNNAMED

>  <AUTHOR>
    GENERATED BY OPEN BABEL 2.4.90

>  <MASTER>
        0    0    0    0    0    0    0    0   22    0   22    0

