__1th6_A_rec_2qu9_eug_lig_docked.pdb
 OpenBabel10201904583D

 11 11  0  0  0  0  0  0  0  0999 V2000
    2.9900  -19.7300   -4.4070 C   0  0  0  0  0  0  0  0  0  0  0  0
    2.5440  -18.7710   -5.3230 C   0  0  0  0  0  0  0  0  0  0  0  0
    1.3720  -18.0410   -5.1060 C   0  0  0  0  0  0  0  0  0  0  0  0
    0.6070  -18.3050   -3.8480 C   0  0  0  0  0  0  0  0  0  0  0  0
    1.0980  -19.2640   -2.9560 C   0  0  0  0  0  0  0  0  0  0  0  0
    2.2710  -19.9740   -3.2350 C   0  0  0  0  0  0  0  0  0  0  0  0
   -0.5390  -17.6150   -3.5690 O   0  0  0  0  0  0  0  0  0  0  0  0
    4.2480  -20.4600   -4.6990 C   0  0  0  0  0  0  0  0  0  0  0  0
    4.8510  -21.1530   -3.7400 C   0  0  0  0  0  0  0  0  0  0  0  0
    0.5750  -17.4760   -7.3750 C   0  0  0  0  0  0  0  0  0  0  0  0
    0.9460  -17.0990   -6.0380 O   0  0  0  0  0  0  0  0  0  0  0  0
  1  2  2  0  0  0  0
  1  8  1  0  0  0  0
  1  6  1  0  0  0  0
  2  3  1  0  0  0  0
  3 11  1  0  0  0  0
  3  4  2  0  0  0  0
  4  7  1  0  0  0  0
  4  5  1  0  0  0  0
  5  6  2  0  0  0  0
  8  9  2  0  0  0  0
 10 11  1  0  0  0  0
M  END
>  <MODEL>
       1

>  <COMPND>
    UNNAMED

>  <AUTHOR>
    GENERATED BY OPEN BABEL 2.4.90

>  <MASTER>
        0    0    0    0    0    0    0    0   11    0   11    0

