__1tj9_A_rec_4qem_hc4_lig_min.pdb
 OpenBabel10201902293D

 12 12  0  0  0  0  0  0  0  0999 V2000
    3.6170  -20.5190   -4.0310 C   0  0  0  0  0  0  0  0  0  0  0  0
    2.9790  -20.7140   -2.7910 C   0  0  0  0  0  0  0  0  0  0  0  0
    1.8930  -19.8630   -2.4470 C   0  0  0  0  0  0  0  0  0  0  0  0
    1.4340  -18.9150   -3.3900 C   0  0  0  0  0  0  0  0  0  0  0  0
    2.0460  -18.7380   -4.6430 C   0  0  0  0  0  0  0  0  0  0  0  0
    3.1770  -19.5320   -4.9330 C   0  0  0  0  0  0  0  0  0  0  0  0
    0.3950  -18.1430   -2.9870 O   0  0  0  0  0  0  0  0  0  0  0  0
    5.3080  -21.2880   -5.5640 C   0  0  0  0  0  0  0  0  0  0  0  0
    4.7890  -21.3890   -4.3460 C   0  0  0  0  0  0  0  0  0  0  0  0
    6.4620  -22.0680   -6.0280 C   0  0  0  0  0  0  0  0  0  0  0  0
    7.3470  -22.3920   -5.1810 O   0  0  0  0  0  0  0  0  0  0  0  0
    6.5230  -22.4690   -7.2520 O   0  0  0  0  0  0  0  0  0  0  0  0
  1  6  2  0  0  0  0
  1  9  1  0  0  0  0
  1  2  1  0  0  0  0
  2  3  2  0  0  0  0
  3  4  1  0  0  0  0
  4  5  2  0  0  0  0
  4  7  1  0  0  0  0
  5  6  1  0  0  0  0
  8 10  1  0  0  0  0
  8  9  2  0  0  0  0
 10 12  2  0  0  0  0
 10 11  1  0  0  0  0
M  END
>  <COMPND>
    UNNAMED

>  <AUTHOR>
    GENERATED BY OPEN BABEL 2.4.90

>  <MASTER>
        0    0    0    0    0    0    0    0   12    0   12    0

