__1tk4_A_rec_4qem_hc4_lig_min.pdb
 OpenBabel10201903583D

 12 12  0  0  0  0  0  0  0  0999 V2000
    1.4700  -15.9390   -7.4600 C   0  0  0  0  0  0  0  0  0  0  0  0
    1.1650  -14.5750   -7.6280 C   0  0  0  0  0  0  0  0  0  0  0  0
    1.0990  -14.0520   -8.9480 C   0  0  0  0  0  0  0  0  0  0  0  0
    1.2560  -14.9300  -10.0450 C   0  0  0  0  0  0  0  0  0  0  0  0
    1.5300  -16.2990   -9.8850 C   0  0  0  0  0  0  0  0  0  0  0  0
    1.6760  -16.7830   -8.5670 C   0  0  0  0  0  0  0  0  0  0  0  0
    1.1810  -14.3550  -11.2720 O   0  0  0  0  0  0  0  0  0  0  0  0
    1.1970  -17.7020   -5.8430 C   0  0  0  0  0  0  0  0  0  0  0  0
    1.5850  -16.4510   -6.0630 C   0  0  0  0  0  0  0  0  0  0  0  0
    1.2520  -18.3560   -4.5290 C   0  0  0  0  0  0  0  0  0  0  0  0
    2.1620  -18.0040   -3.7210 O   0  0  0  0  0  0  0  0  0  0  0  0
    0.3460  -19.2100   -4.1930 O   0  0  0  0  0  0  0  0  0  0  0  0
  1  6  2  0  0  0  0
  1  9  1  0  0  0  0
  1  2  1  0  0  0  0
  2  3  2  0  0  0  0
  3  4  1  0  0  0  0
  4  5  2  0  0  0  0
  4  7  1  0  0  0  0
  5  6  1  0  0  0  0
  8 10  1  0  0  0  0
  8  9  2  0  0  0  0
 10 12  2  0  0  0  0
 10 11  1  0  0  0  0
M  END
>  <COMPND>
    UNNAMED

>  <AUTHOR>
    GENERATED BY OPEN BABEL 2.4.90

>  <MASTER>
        0    0    0    0    0    0    0    0   12    0   12    0

