__1y38_B_rec_2qu9_eug_lig_min.pdb
 OpenBabel10201904233D

 11 11  0  0  0  0  0  0  0  0999 V2000
    2.9510  -20.2310   -3.5760 C   0  0  0  0  0  0  0  0  0  0  0  0
    2.6980  -19.3400   -4.6250 C   0  0  0  0  0  0  0  0  0  0  0  0
    1.6330  -18.4360   -4.5770 C   0  0  0  0  0  0  0  0  0  0  0  0
    0.7700  -18.4380   -3.3550 C   0  0  0  0  0  0  0  0  0  0  0  0
    1.0690  -19.3370   -2.3270 C   0  0  0  0  0  0  0  0  0  0  0  0
    2.1420  -20.2300   -2.4380 C   0  0  0  0  0  0  0  0  0  0  0  0
   -0.2780  -17.5690   -3.2390 O   0  0  0  0  0  0  0  0  0  0  0  0
    4.1050  -21.1560   -3.6930 C   0  0  0  0  0  0  0  0  0  0  0  0
    5.3330  -20.6710   -3.8310 C   0  0  0  0  0  0  0  0  0  0  0  0
    2.3420  -16.5440   -5.9970 C   0  0  0  0  0  0  0  0  0  0  0  0
    1.3990  -17.5670   -5.6390 O   0  0  0  0  0  0  0  0  0  0  0  0
  1  2  2  0  0  0  0
  1  8  1  0  0  0  0
  1  6  1  0  0  0  0
  2  3  1  0  0  0  0
  3 11  1  0  0  0  0
  3  4  2  0  0  0  0
  4  7  1  0  0  0  0
  4  5  1  0  0  0  0
  5  6  2  0  0  0  0
  8  9  2  0  0  0  0
 10 11  1  0  0  0  0
M  END
>  <COMPND>
    UNNAMED

>  <AUTHOR>
    GENERATED BY OPEN BABEL 2.4.90

>  <MASTER>
        0    0    0    0    0    0    0    0   11    0   11    0

