__1zr8_A_rec_1oyf_mhn_lig_docked.pdb
 OpenBabel10201907133D

  9  8  0  0  0  0  0  0  0  0999 V2000
    1.6430  -19.6550   -2.7570 C   0  0  0  0  0  0  0  0  0  0  0  0
    1.2290  -18.5400   -3.7250 C   0  0  0  0  0  0  0  0  0  0  0  0
   -0.6840  -17.2270   -3.5800 O   0  0  0  0  0  0  0  0  0  0  0  0
   -0.2030  -18.4350   -4.1750 C   0  0  0  0  0  0  0  0  0  0  0  0
    2.7490  -20.2420   -3.5940 C   0  0  0  0  0  0  0  0  0  0  0  0
    3.8820  -21.0930   -3.0390 C   0  0  0  0  0  0  0  0  0  0  0  0
    5.1250  -20.9070   -3.9890 C   0  0  0  0  0  0  0  0  0  0  0  0
    5.3210  -22.1760   -4.8630 C   0  0  0  0  0  0  0  0  0  0  0  0
    4.9680  -19.7340   -4.9590 C   0  0  0  0  0  0  0  0  0  0  0  0
  1  5  1  0  0  0  0
  1  2  1  0  0  0  0
  2  4  1  0  0  0  0
  3  4  1  0  0  0  0
  5  6  1  0  0  0  0
  6  7  1  0  0  0  0
  7  8  1  0  0  0  0
  7  9  1  0  0  0  0
M  END
>  <MODEL>
       3

>  <COMPND>
    UNNAMED

>  <AUTHOR>
    GENERATED BY OPEN BABEL 2.4.90

>  <MASTER>
        0    0    0    0    0    0    0    0    9    0    9    0

