__1zwp_A_rec_1sv3_ann_lig_docked.pdb
 OpenBabel10201905093D

 11 11  0  0  0  0  0  0  0  0999 V2000
    5.8870  -21.7990   -6.3280 C   0  0  0  0  0  0  0  0  0  0  0  0
    5.9210  -22.2740   -5.0220 C   0  0  0  0  0  0  0  0  0  0  0  0
    4.9590  -21.8890   -4.0920 C   0  0  0  0  0  0  0  0  0  0  0  0
    3.9400  -21.0180   -4.4640 C   0  0  0  0  0  0  0  0  0  0  0  0
    3.9040  -20.5350   -5.7630 C   0  0  0  0  0  0  0  0  0  0  0  0
    4.8650  -20.9240   -6.6960 C   0  0  0  0  0  0  0  0  0  0  0  0
    2.8880  -20.5930   -3.4770 C   0  0  0  0  0  0  0  0  0  0  0  0
    3.0160  -20.7860   -2.2740 O   0  0  0  0  0  0  0  0  0  0  0  0
    1.8030  -19.9870   -3.9240 O   0  0  0  0  0  0  0  0  0  0  0  0
    6.6220  -22.4760   -8.6000 C   0  0  0  0  0  0  0  0  0  0  0  0
    6.8650  -22.2070   -7.2140 O   0  0  0  0  0  0  0  0  0  0  0  0
  1 11  1  0  0  0  0
  1  6  2  0  0  0  0
  1  2  1  0  0  0  0
  2  3  2  0  0  0  0
  3  4  1  0  0  0  0
  4  5  2  0  0  0  0
  4  7  1  0  0  0  0
  5  6  1  0  0  0  0
  7  8  2  0  0  0  0
  7  9  1  0  0  0  0
 10 11  1  0  0  0  0
M  END
>  <MODEL>
      14

>  <COMPND>
    UNNAMED

>  <AUTHOR>
    GENERATED BY OPEN BABEL 2.4.90

>  <MASTER>
        0    0    0    0    0    0    0    0   11    0   11    0

