__1zyx_A_rec_1sv3_ann_lig_min.pdb
 OpenBabel10201901443D

 11 11  0  0  0  0  0  0  0  0999 V2000
    6.1260  -21.3380   -5.2710 C   0  0  0  0  0  0  0  0  0  0  0  0
    5.2890  -22.2090   -4.5840 C   0  0  0  0  0  0  0  0  0  0  0  0
    3.9300  -21.9380   -4.4400 C   0  0  0  0  0  0  0  0  0  0  0  0
    3.3890  -20.7820   -4.9920 C   0  0  0  0  0  0  0  0  0  0  0  0
    4.2200  -19.9040   -5.6730 C   0  0  0  0  0  0  0  0  0  0  0  0
    5.5790  -20.1780   -5.8210 C   0  0  0  0  0  0  0  0  0  0  0  0
    1.9250  -20.4710   -4.8520 C   0  0  0  0  0  0  0  0  0  0  0  0
    1.3040  -19.8790   -5.7280 O   0  0  0  0  0  0  0  0  0  0  0  0
    1.2930  -20.8550   -3.7580 O   0  0  0  0  0  0  0  0  0  0  0  0
    8.3000  -21.2000   -6.4620 C   0  0  0  0  0  0  0  0  0  0  0  0
    7.4660  -21.6480   -5.3860 O   0  0  0  0  0  0  0  0  0  0  0  0
  1 11  1  0  0  0  0
  1  6  2  0  0  0  0
  1  2  1  0  0  0  0
  2  3  2  0  0  0  0
  3  4  1  0  0  0  0
  4  5  2  0  0  0  0
  4  7  1  0  0  0  0
  5  6  1  0  0  0  0
  7  8  2  0  0  0  0
  7  9  1  0  0  0  0
 10 11  1  0  0  0  0
M  END
>  <COMPND>
    UNNAMED

>  <AUTHOR>
    GENERATED BY OPEN BABEL 2.4.90

>  <MASTER>
        0    0    0    0    0    0    0    0   11    0   11    0

