__1zyx_A_rec_2oli_iop_lig_min.pdb
 OpenBabel10201902453D

 14 15  0  0  0  0  0  0  0  0999 V2000
    5.3030  -21.2130   -3.7380 N   0  0  0  0  0  0  0  0  0  0  0  0
    5.7840  -20.5640   -4.8450 C   0  0  0  0  0  0  0  0  0  0  0  0
    4.8550  -19.6530   -5.3650 C   0  0  0  0  0  0  0  0  0  0  0  0
    3.6540  -19.7620   -4.4650 C   0  0  0  0  0  0  0  0  0  0  0  0
    2.3600  -19.1520   -4.3880 C   0  0  0  0  0  0  0  0  0  0  0  0
    1.4710  -19.5360   -3.3490 C   0  0  0  0  0  0  0  0  0  0  0  0
    1.8580  -20.5210   -2.3860 C   0  0  0  0  0  0  0  0  0  0  0  0
    3.1360  -21.1570   -2.4210 C   0  0  0  0  0  0  0  0  0  0  0  0
    4.0570  -20.8070   -3.4410 C   0  0  0  0  0  0  0  0  0  0  0  0
    5.0810  -18.7670   -6.5990 C   0  0  0  0  0  0  0  0  0  0  0  0
    3.8340  -17.9430   -6.9950 C   0  0  0  0  0  0  0  0  0  0  0  0
    3.8610  -16.4560   -6.6310 C   0  0  0  0  0  0  0  0  0  0  0  0
    4.5610  -16.2830   -5.3780 O   0  0  0  0  0  0  0  0  0  0  0  0
    2.5290  -15.9510   -6.5190 O   0  0  0  0  0  0  0  0  0  0  0  0
  1  2  2  0  0  0  0
  1  9  1  0  0  0  0
  2  3  1  0  0  0  0
  3 10  1  0  0  0  0
  3  4  2  0  0  0  0
  4  5  1  0  0  0  0
  4  9  1  0  0  0  0
  5  6  1  0  0  0  0
  6  7  2  0  0  0  0
  7  8  1  0  0  0  0
  8  9  2  0  0  0  0
 10 11  1  0  0  0  0
 11 12  1  0  0  0  0
 12 14  1  0  0  0  0
 12 13  1  0  0  0  0
M  END
>  <COMPND>
    UNNAMED

>  <AUTHOR>
    GENERATED BY OPEN BABEL 2.4.90

>  <MASTER>
        0    0    0    0    0    0    0    0   14    0   14    0

