__2dpz_A_rec_4qer_stl_lig_min.pdb
 OpenBabel10201902513D

 17 18  0  0  0  0  0  0  0  0999 V2000
    8.4460  -21.2340   -5.4570 C   0  0  0  0  0  0  0  0  0  0  0  0
    8.6820  -21.4920   -6.8000 C   0  0  0  0  0  0  0  0  0  0  0  0
    7.6420  -21.3240   -7.7440 C   0  0  0  0  0  0  0  0  0  0  0  0
    6.3320  -20.9000   -7.3350 C   0  0  0  0  0  0  0  0  0  0  0  0
    6.1090  -20.6190   -5.9680 C   0  0  0  0  0  0  0  0  0  0  0  0
    7.1620  -20.7700   -5.0210 C   0  0  0  0  0  0  0  0  0  0  0  0
    7.9310  -21.6240   -9.0590 O   0  0  0  0  0  0  0  0  0  0  0  0
    9.5080  -21.4240   -4.6340 O   0  0  0  0  0  0  0  0  0  0  0  0
    4.8080  -20.1190   -5.5020 C   0  0  0  0  0  0  0  0  0  0  0  0
    3.8290  -20.7030   -4.8390 C   0  0  0  0  0  0  0  0  0  0  0  0
    2.6700  -19.8330   -4.4720 C   0  0  0  0  0  0  0  0  0  0  0  0
    2.1680  -19.9020   -3.1540 C   0  0  0  0  0  0  0  0  0  0  0  0
    1.0720  -19.0340   -2.8170 C   0  0  0  0  0  0  0  0  0  0  0  0
    0.4550  -18.2010   -3.7920 C   0  0  0  0  0  0  0  0  0  0  0  0
    0.9370  -18.1630   -5.1150 C   0  0  0  0  0  0  0  0  0  0  0  0
    2.0740  -18.9660   -5.4150 C   0  0  0  0  0  0  0  0  0  0  0  0
   -0.5750  -17.3930   -3.3860 O   0  0  0  0  0  0  0  0  0  0  0  0
  1  2  2  0  0  0  0
  1  6  1  0  0  0  0
  1  8  1  0  0  0  0
  2  3  1  0  0  0  0
  3  7  1  0  0  0  0
  3  4  2  0  0  0  0
  4  5  1  0  0  0  0
  5  9  1  0  0  0  0
  5  6  2  0  0  0  0
  9 10  2  0  0  0  0
 10 11  1  0  0  0  0
 11 16  2  0  0  0  0
 11 12  1  0  0  0  0
 12 13  2  0  0  0  0
 13 14  1  0  0  0  0
 14 15  2  0  0  0  0
 14 17  1  0  0  0  0
 15 16  1  0  0  0  0
M  END
>  <COMPND>
    UNNAMED

>  <AUTHOR>
    GENERATED BY OPEN BABEL 2.4.90

>  <MASTER>
        0    0    0    0    0    0    0    0   17    0   17    0

