__2oli_A_rec_2qvd_ber_lig_docked.pdb
 OpenBabel10201906223D

 25 29  0  0  0  0  0  0  0  0999 V2000
    4.9220  -20.6850   -7.4630 C   0  0  0  0  0  0  0  0  0  0  0  0
    4.4370  -20.7420   -6.0540 C   0  0  0  0  0  0  0  0  0  0  0  0
    6.2190  -20.9660   -7.7330 N   0  0  0  0  0  0  0  0  0  0  0  0
    3.9520  -20.3050   -8.5250 C   0  0  0  0  0  0  0  0  0  0  0  0
    5.4200  -21.1210   -4.9960 C   0  0  0  0  0  0  0  0  0  0  0  0
    3.1040  -20.4510   -5.7480 C   0  0  0  0  0  0  0  0  0  0  0  0
    6.7160  -20.9210   -9.0130 C   0  0  0  0  0  0  0  0  0  0  0  0
    7.0760  -21.2960   -6.7500 C   0  0  0  0  0  0  0  0  0  0  0  0
    4.4280  -20.2410   -9.9150 C   0  0  0  0  0  0  0  0  0  0  0  0
    5.0510  -21.2080   -3.6580 C   0  0  0  0  0  0  0  0  0  0  0  0
    6.7180  -21.3840   -5.4010 C   0  0  0  0  0  0  0  0  0  0  0  0
    2.7600  -20.5460   -4.4090 C   0  0  0  0  0  0  0  0  0  0  0  0
    5.8530  -20.5590  -10.1610 C   0  0  0  0  0  0  0  0  0  0  0  0
    3.5750  -19.8930  -10.9610 C   0  0  0  0  0  0  0  0  0  0  0  0
    3.7210  -20.9180   -3.3820 C   0  0  0  0  0  0  0  0  0  0  0  0
    1.5170  -20.3230   -3.7390 O   0  0  0  0  0  0  0  0  0  0  0  0
    6.3460  -20.5020  -11.5580 C   0  0  0  0  0  0  0  0  0  0  0  0
    4.0280  -19.8260  -12.2790 C   0  0  0  0  0  0  0  0  0  0  0  0
    2.9980  -20.9040   -2.1540 O   0  0  0  0  0  0  0  0  0  0  0  0
    1.6710  -20.5430   -2.3720 C   0  0  0  0  0  0  0  0  0  0  0  0
    5.3560  -20.1150  -12.6030 C   0  0  0  0  0  0  0  0  0  0  0  0
    7.6570  -20.7620  -11.8950 O   0  0  0  0  0  0  0  0  0  0  0  0
    8.6710  -19.7460  -11.9140 C   0  0  0  0  0  0  0  0  0  0  0  0
    5.7550  -20.0490  -13.9120 O   0  0  0  0  0  0  0  0  0  0  0  0
    6.0580  -18.7810  -14.4980 C   0  0  0  0  0  0  0  0  0  0  0  0
  1  4  1  0  0  0  0
  1  3  1  0  0  0  0
  1  2  2  0  0  0  0
  2  6  1  0  0  0  0
  2  5  1  0  0  0  0
  3  7  1  0  0  0  0
  3  8  1  0  0  0  0
  4  9  2  0  0  0  0
  5 11  1  0  0  0  0
  5 10  2  0  0  0  0
  6 12  1  0  0  0  0
  7 13  2  0  0  0  0
  8 11  2  0  0  0  0
  9 14  1  0  0  0  0
  9 13  1  0  0  0  0
 10 15  1  0  0  0  0
 12 16  1  0  0  0  0
 12 15  2  0  0  0  0
 13 17  1  0  0  0  0
 14 18  2  0  0  0  0
 15 19  1  0  0  0  0
 16 20  1  0  0  0  0
 17 21  2  0  0  0  0
 17 22  1  0  0  0  0
 18 21  1  0  0  0  0
 19 20  1  0  0  0  0
 21 24  1  0  0  0  0
 22 23  1  0  0  0  0
 24 25  1  0  0  0  0
M  END
>  <MODEL>
       7

>  <COMPND>
    UNNAMED

>  <AUTHOR>
    GENERATED BY OPEN BABEL 2.4.90

>  <MASTER>
        0    0    0    0    0    0    0    0   25    0   25    0

