__2oli_A_rec_1fv0_9ar_lig_docked.pdb
 OpenBabel10201906223D

 26 29  0  0  0  0  0  0  0  0999 V2000
    5.0600  -20.8160   -7.9770 C   0  0  0  0  0  0  0  0  0  0  0  0
    5.6710  -21.8390   -7.2210 C   0  0  0  0  0  0  0  0  0  0  0  0
    5.3080  -22.1070   -5.9070 C   0  0  0  0  0  0  0  0  0  0  0  0
    4.2980  -21.3610   -5.2520 C   0  0  0  0  0  0  0  0  0  0  0  0
    3.5900  -20.2660   -5.9490 C   0  0  0  0  0  0  0  0  0  0  0  0
    3.9960  -19.9970   -7.3730 C   0  0  0  0  0  0  0  0  0  0  0  0
    2.5460  -19.4540   -5.3340 C   0  0  0  0  0  0  0  0  0  0  0  0
    1.9210  -18.3720   -6.1290 C   0  0  0  0  0  0  0  0  0  0  0  0
    2.3370  -18.1590   -7.4630 C   0  0  0  0  0  0  0  0  0  0  0  0
    3.3290  -18.9410   -8.0960 C   0  0  0  0  0  0  0  0  0  0  0  0
    2.0750  -19.6220   -3.9830 C   0  0  0  0  0  0  0  0  0  0  0  0
    1.0780  -18.8100   -3.4360 C   0  0  0  0  0  0  0  0  0  0  0  0
    0.4970  -17.7880   -4.1890 C   0  0  0  0  0  0  0  0  0  0  0  0
    0.8990  -17.5340   -5.5570 C   0  0  0  0  0  0  0  0  0  0  0  0
    5.1410  -22.9270   -3.8770 C   0  0  0  0  0  0  0  0  0  0  0  0
    5.8540  -23.0680   -5.1190 O   0  0  0  0  0  0  0  0  0  0  0  0
    4.1780  -21.8590   -3.9820 O   0  0  0  0  0  0  0  0  0  0  0  0
   -0.5040  -17.0010   -3.5660 O   0  0  0  0  0  0  0  0  0  0  0  0
    5.5170  -20.7890   -9.4410 C   0  0  0  0  0  0  0  0  0  0  0  0
    6.6280  -20.4450   -9.8420 O   0  0  0  0  0  0  0  0  0  0  0  0
    5.0820  -21.5420  -10.3070 O   0  0  0  0  0  0  0  0  0  0  0  0
    3.4050  -19.3690  -10.5450 O   0  0  0  0  0  0  0  0  0  0  0  0
    2.5550  -17.6770   -9.6840 O   0  0  0  0  0  0  0  0  0  0  0  0
    3.2570  -18.6910   -9.7350 N   0  0  0  0  0  0  0  0  0  0  0  0
    0.7140  -15.0190   -6.8980 C   0  0  0  0  0  0  0  0  0  0  0  0
    0.6950  -16.3170   -6.1710 O   0  0  0  0  0  0  0  0  0  0  0  0
  1 19  1  0  0  0  0
  1  6  2  0  0  0  0
  1  2  1  0  0  0  0
  2  3  2  0  0  0  0
  3  4  1  0  0  0  0
  3 16  1  0  0  0  0
  4  5  2  0  0  0  0
  4 17  1  0  0  0  0
  5  6  1  0  0  0  0
  5  7  1  0  0  0  0
  6 10  1  0  0  0  0
  7  8  2  0  0  0  0
  7 11  1  0  0  0  0
  8  9  1  0  0  0  0
  8 14  1  0  0  0  0
  9 10  2  0  0  0  0
 10 24  1  0  0  0  0
 11 12  2  0  0  0  0
 12 13  1  0  0  0  0
 13 14  2  0  0  0  0
 13 18  1  0  0  0  0
 14 26  1  0  0  0  0
 15 16  1  0  0  0  0
 15 17  1  0  0  0  0
 19 20  2  0  0  0  0
 19 21  1  0  0  0  0
 22 24  2  0  0  0  0
 23 24  2  0  0  0  0
 25 26  1  0  0  0  0
M  END
>  <MODEL>
      12

>  <COMPND>
    UNNAMED

>  <AUTHOR>
    GENERATED BY OPEN BABEL 2.4.90

>  <MASTER>
        0    0    0    0    0    0    0    0   26    0   26    0

