__2oyf_A_rec_2qvd_ber_lig_min.pdb
 OpenBabel10201904013D

 25 29  0  0  0  0  0  0  0  0999 V2000
    5.0070  -20.8230   -7.2590 C   0  0  0  0  0  0  0  0  0  0  0  0
    4.4230  -20.7610   -5.8890 C   0  0  0  0  0  0  0  0  0  0  0  0
    6.1080  -21.5800   -7.4810 N   0  0  0  0  0  0  0  0  0  0  0  0
    4.3550  -20.0330   -8.3370 C   0  0  0  0  0  0  0  0  0  0  0  0
    5.0880  -21.5550   -4.8140 C   0  0  0  0  0  0  0  0  0  0  0  0
    3.2900  -19.9820   -5.6330 C   0  0  0  0  0  0  0  0  0  0  0  0
    6.6880  -21.6650   -8.7230 C   0  0  0  0  0  0  0  0  0  0  0  0
    6.6830  -22.2760   -6.4830 C   0  0  0  0  0  0  0  0  0  0  0  0
    4.9310  -20.0870   -9.6900 C   0  0  0  0  0  0  0  0  0  0  0  0
    4.6050  -21.5620   -3.5090 C   0  0  0  0  0  0  0  0  0  0  0  0
    6.2090  -22.2880   -5.1680 C   0  0  0  0  0  0  0  0  0  0  0  0
    2.8270  -20.0070   -4.3270 C   0  0  0  0  0  0  0  0  0  0  0  0
    6.1330  -20.9290   -9.8830 C   0  0  0  0  0  0  0  0  0  0  0  0
    4.3720  -19.3730  -10.7480 C   0  0  0  0  0  0  0  0  0  0  0  0
    3.4760  -20.7850   -3.2840 C   0  0  0  0  0  0  0  0  0  0  0  0
    1.7180  -19.3470   -3.7090 O   0  0  0  0  0  0  0  0  0  0  0  0
    6.7230  -20.9950  -11.2410 C   0  0  0  0  0  0  0  0  0  0  0  0
    4.9230  -19.4190  -12.0290 C   0  0  0  0  0  0  0  0  0  0  0  0
    2.7180  -20.5530   -2.1000 O   0  0  0  0  0  0  0  0  0  0  0  0
    1.6600  -19.6840   -2.3590 C   0  0  0  0  0  0  0  0  0  0  0  0
    6.0540  -20.1910  -12.3030 C   0  0  0  0  0  0  0  0  0  0  0  0
    7.8510  -21.7350  -11.5270 O   0  0  0  0  0  0  0  0  0  0  0  0
    7.7930  -23.1010  -11.9670 C   0  0  0  0  0  0  0  0  0  0  0  0
    6.5540  -20.2170  -13.5780 O   0  0  0  0  0  0  0  0  0  0  0  0
    6.8760  -18.9910  -14.2390 C   0  0  0  0  0  0  0  0  0  0  0  0
  1  4  1  0  0  0  0
  1  3  1  0  0  0  0
  1  2  2  0  0  0  0
  2  6  1  0  0  0  0
  2  5  1  0  0  0  0
  3  7  1  0  0  0  0
  3  8  1  0  0  0  0
  4  9  2  0  0  0  0
  5 11  1  0  0  0  0
  5 10  2  0  0  0  0
  6 12  1  0  0  0  0
  7 13  2  0  0  0  0
  8 11  2  0  0  0  0
  9 14  1  0  0  0  0
  9 13  1  0  0  0  0
 10 15  1  0  0  0  0
 12 16  1  0  0  0  0
 12 15  2  0  0  0  0
 13 17  1  0  0  0  0
 14 18  2  0  0  0  0
 15 19  1  0  0  0  0
 16 20  1  0  0  0  0
 17 21  2  0  0  0  0
 17 22  1  0  0  0  0
 18 21  1  0  0  0  0
 19 20  1  0  0  0  0
 21 24  1  0  0  0  0
 22 23  1  0  0  0  0
 24 25  1  0  0  0  0
M  END
>  <COMPND>
    UNNAMED

>  <AUTHOR>
    GENERATED BY OPEN BABEL 2.4.90

>  <MASTER>
        0    0    0    0    0    0    0    0   25    0   25    0

