__2pvt_A_rec_4qem_hc4_lig_docked.pdb
 OpenBabel10201907233D

 12 12  0  0  0  0  0  0  0  0999 V2000
    2.7530  -19.7730   -4.2270 C   0  0  0  0  0  0  0  0  0  0  0  0
    2.3680  -18.9760   -5.3220 C   0  0  0  0  0  0  0  0  0  0  0  0
    1.0830  -18.3660   -5.2980 C   0  0  0  0  0  0  0  0  0  0  0  0
    0.2750  -18.5070   -4.1470 C   0  0  0  0  0  0  0  0  0  0  0  0
    0.6660  -19.2740   -3.0370 C   0  0  0  0  0  0  0  0  0  0  0  0
    1.9080  -19.9420   -3.1130 C   0  0  0  0  0  0  0  0  0  0  0  0
   -0.9350  -17.8960   -4.2020 O   0  0  0  0  0  0  0  0  0  0  0  0
    4.9660  -19.9500   -5.1590 C   0  0  0  0  0  0  0  0  0  0  0  0
    4.0830  -20.4450   -4.2990 C   0  0  0  0  0  0  0  0  0  0  0  0
    6.3180  -20.4920   -5.3460 C   0  0  0  0  0  0  0  0  0  0  0  0
    7.2240  -20.1370   -4.5340 O   0  0  0  0  0  0  0  0  0  0  0  0
    6.5450  -21.3630   -6.2690 O   0  0  0  0  0  0  0  0  0  0  0  0
  1  6  2  0  0  0  0
  1  9  1  0  0  0  0
  1  2  1  0  0  0  0
  2  3  2  0  0  0  0
  3  4  1  0  0  0  0
  4  5  2  0  0  0  0
  4  7  1  0  0  0  0
  5  6  1  0  0  0  0
  8 10  1  0  0  0  0
  8  9  2  0  0  0  0
 10 12  2  0  0  0  0
 10 11  1  0  0  0  0
M  END
>  <MODEL>
       8

>  <COMPND>
    UNNAMED

>  <AUTHOR>
    GENERATED BY OPEN BABEL 2.4.90

>  <MASTER>
        0    0    0    0    0    0    0    0   12    0   12    0

