__2pvt_A_rec_1sv9_dif_lig_docked.pdb
 OpenBabel10201907223D

 19 20  0  0  0  0  0  0  0  0999 V2000
    2.6580  -18.3710   -5.5540 C   0  0  0  0  0  0  0  0  0  0  0  0
    3.3920  -18.7130   -6.8080 C   0  0  0  0  0  0  0  0  0  0  0  0
    3.3970  -17.7850   -7.8180 C   0  0  0  0  0  0  0  0  0  0  0  0
    2.7260  -16.5620   -7.6610 C   0  0  0  0  0  0  0  0  0  0  0  0
    2.0170  -16.2100   -6.4880 C   0  0  0  0  0  0  0  0  0  0  0  0
    1.9920  -17.1310   -5.4370 C   0  0  0  0  0  0  0  0  0  0  0  0
    4.0630  -19.8600   -7.0440 N   0  0  0  0  0  0  0  0  0  0  0  0
    7.6620  -20.9830   -5.6720 C   0  0  0  0  0  0  0  0  0  0  0  0
    6.3200  -20.5780   -5.6480 C   0  0  0  0  0  0  0  0  0  0  0  0
    5.7640  -20.4410   -4.0430 Cl  0  0  0  0  0  0  0  0  0  0  0  0
    5.3900  -20.2740   -6.8010 C   0  0  0  0  0  0  0  0  0  0  0  0
    6.1640  -20.5090   -8.0320 C   0  0  0  0  0  0  0  0  0  0  0  0
    5.1340  -20.2000   -9.4530 Cl  0  0  0  0  0  0  0  0  0  0  0  0
    7.5320  -20.9220   -8.0100 C   0  0  0  0  0  0  0  0  0  0  0  0
    8.2810  -21.1570   -6.8580 C   0  0  0  0  0  0  0  0  0  0  0  0
    2.5640  -19.2500   -4.3430 C   0  0  0  0  0  0  0  0  0  0  0  0
    1.5490  -19.6950   -3.4490 C   0  0  0  0  0  0  0  0  0  0  0  0
    1.2490  -18.8560   -2.5880 O   0  0  0  0  0  0  0  0  0  0  0  0
    1.0880  -20.8670   -3.6820 O   0  0  0  0  0  0  0  0  0  0  0  0
  1  2  2  0  0  0  0
  1  6  1  0  0  0  0
  1 16  1  0  0  0  0
  2  3  1  0  0  0  0
  2  7  1  0  0  0  0
  3  4  2  0  0  0  0
  4  5  1  0  0  0  0
  5  6  2  0  0  0  0
  7 11  1  0  0  0  0
  8  9  2  0  0  0  0
  8 15  1  0  0  0  0
  9 10  1  0  0  0  0
  9 11  1  0  0  0  0
 11 12  2  0  0  0  0
 12 14  1  0  0  0  0
 12 13  1  0  0  0  0
 14 15  2  0  0  0  0
 16 17  1  0  0  0  0
 17 18  2  0  0  0  0
 17 19  1  0  0  0  0
M  END
>  <MODEL>
       8

>  <COMPND>
    UNNAMED

>  <AUTHOR>
    GENERATED BY OPEN BABEL 2.4.90

>  <MASTER>
        0    0    0    0    0    0    0    0   19    0   19    0

