__2qu9_A_rec_2qvd_ber_lig_docked.pdb
 OpenBabel10201905293D

 25 29  0  0  0  0  0  0  0  0999 V2000
    5.5730  -20.6090   -7.3270 C   0  0  0  0  0  0  0  0  0  0  0  0
    4.9130  -20.6340   -5.9900 C   0  0  0  0  0  0  0  0  0  0  0  0
    6.8710  -20.9820   -7.4360 N   0  0  0  0  0  0  0  0  0  0  0  0
    4.7730  -20.1600   -8.4980 C   0  0  0  0  0  0  0  0  0  0  0  0
    5.7270  -21.0820   -4.8220 C   0  0  0  0  0  0  0  0  0  0  0  0
    3.5760  -20.2490   -5.8500 C   0  0  0  0  0  0  0  0  0  0  0  0
    7.5270  -20.9700   -8.6440 C   0  0  0  0  0  0  0  0  0  0  0  0
    7.5730  -21.3730   -6.3580 C   0  0  0  0  0  0  0  0  0  0  0  0
    5.4220  -20.1290   -9.8170 C   0  0  0  0  0  0  0  0  0  0  0  0
    5.1890  -21.1450   -3.5410 C   0  0  0  0  0  0  0  0  0  0  0  0
    7.0450  -21.4360   -5.0650 C   0  0  0  0  0  0  0  0  0  0  0  0
    3.0620  -20.3210   -4.5650 C   0  0  0  0  0  0  0  0  0  0  0  0
    6.8410  -20.5470   -9.8870 C   0  0  0  0  0  0  0  0  0  0  0  0
    4.7340  -19.7200  -10.9570 C   0  0  0  0  0  0  0  0  0  0  0  0
    3.8580  -20.7610   -3.4300 C   0  0  0  0  0  0  0  0  0  0  0  0
    1.7640  -20.0110   -4.0530 O   0  0  0  0  0  0  0  0  0  0  0  0
    7.5080  -20.5230  -11.2110 C   0  0  0  0  0  0  0  0  0  0  0  0
    5.3510  -19.6840  -12.2080 C   0  0  0  0  0  0  0  0  0  0  0  0
    2.9900  -20.6980   -2.3020 O   0  0  0  0  0  0  0  0  0  0  0  0
    1.7290  -20.2430   -2.6790 C   0  0  0  0  0  0  0  0  0  0  0  0
    6.6860  -20.0660  -12.3670 C   0  0  0  0  0  0  0  0  0  0  0  0
    8.8290  -20.8760  -11.3840 O   0  0  0  0  0  0  0  0  0  0  0  0
    9.9060  -19.9350  -11.2640 C   0  0  0  0  0  0  0  0  0  0  0  0
    7.2490  -20.0260  -13.6150 O   0  0  0  0  0  0  0  0  0  0  0  0
    7.7210  -18.7850  -14.1430 C   0  0  0  0  0  0  0  0  0  0  0  0
  1  4  1  0  0  0  0
  1  3  1  0  0  0  0
  1  2  2  0  0  0  0
  2  6  1  0  0  0  0
  2  5  1  0  0  0  0
  3  7  1  0  0  0  0
  3  8  1  0  0  0  0
  4  9  2  0  0  0  0
  5 11  1  0  0  0  0
  5 10  2  0  0  0  0
  6 12  1  0  0  0  0
  7 13  2  0  0  0  0
  8 11  2  0  0  0  0
  9 14  1  0  0  0  0
  9 13  1  0  0  0  0
 10 15  1  0  0  0  0
 12 16  1  0  0  0  0
 12 15  2  0  0  0  0
 13 17  1  0  0  0  0
 14 18  2  0  0  0  0
 15 19  1  0  0  0  0
 16 20  1  0  0  0  0
 17 21  2  0  0  0  0
 17 22  1  0  0  0  0
 18 21  1  0  0  0  0
 19 20  1  0  0  0  0
 21 24  1  0  0  0  0
 22 23  1  0  0  0  0
 24 25  1  0  0  0  0
M  END
>  <MODEL>
       7

>  <COMPND>
    UNNAMED

>  <AUTHOR>
    GENERATED BY OPEN BABEL 2.4.90

>  <MASTER>
        0    0    0    0    0    0    0    0   25    0   25    0

