__3cbi_C_rec_4eix_nim_lig_min.pdb
 OpenBabel10201902253D

 21 22  0  0  0  0  0  0  0  0999 V2000
    4.8270  -20.2870   -6.5330 C   0  0  0  0  0  0  0  0  0  0  0  0
    4.2630  -21.5530   -6.8810 C   0  0  0  0  0  0  0  0  0  0  0  0
    4.4310  -22.0680   -8.1750 C   0  0  0  0  0  0  0  0  0  0  0  0
    5.1150  -21.3280   -9.1590 C   0  0  0  0  0  0  0  0  0  0  0  0
    5.5640  -19.5210   -7.4980 C   0  0  0  0  0  0  0  0  0  0  0  0
    5.7670  -19.9620   -8.8670 C   0  0  0  0  0  0  0  0  0  0  0  0
    5.3000  -20.5290   -4.1450 O   0  0  0  0  0  0  0  0  0  0  0  0
    4.6250  -19.8160   -5.1950 N   0  0  0  0  0  0  0  0  0  0  0  0
    3.8950  -18.7880   -4.9770 O   0  0  0  0  0  0  0  0  0  0  0  0
    5.1730  -21.8450  -10.3820 N   0  0  0  0  0  0  0  0  0  0  0  0
    3.8510  -21.6840  -11.3790 S   0  0  0  0  0  0  0  0  0  0  0  0
    4.2750  -21.4560  -12.8310 O   0  0  0  0  0  0  0  0  0  0  0  0
    3.1400  -22.9340  -11.2870 O   0  0  0  0  0  0  0  0  0  0  0  0
    2.7680  -20.4750  -10.8550 C   0  0  0  0  0  0  0  0  0  0  0  0
    6.4730  -19.2150   -9.8560 O   0  0  0  0  0  0  0  0  0  0  0  0
    7.8920  -19.0560   -9.8120 C   0  0  0  0  0  0  0  0  0  0  0  0
    8.8230  -20.1650  -10.0630 C   0  0  0  0  0  0  0  0  0  0  0  0
   10.2560  -19.9190  -10.0120 C   0  0  0  0  0  0  0  0  0  0  0  0
   10.7510  -18.5710   -9.7240 C   0  0  0  0  0  0  0  0  0  0  0  0
    9.8430  -17.4650   -9.4650 C   0  0  0  0  0  0  0  0  0  0  0  0
    8.4350  -17.7050   -9.5040 C   0  0  0  0  0  0  0  0  0  0  0  0
  1  5  2  0  0  0  0
  1  2  1  0  0  0  0
  1  8  1  0  0  0  0
  2  3  2  0  0  0  0
  3  4  1  0  0  0  0
  4 10  1  0  0  0  0
  4  6  2  0  0  0  0
  5  6  1  0  0  0  0
  6 15  1  0  0  0  0
  7  8  2  0  0  0  0
  8  9  2  0  0  0  0
 10 11  1  0  0  0  0
 11 12  2  0  0  0  0
 11 13  2  0  0  0  0
 11 14  1  0  0  0  0
 15 16  1  0  0  0  0
 16 17  2  0  0  0  0
 16 21  1  0  0  0  0
 17 18  1  0  0  0  0
 18 19  2  0  0  0  0
 19 20  1  0  0  0  0
 20 21  2  0  0  0  0
M  END
>  <COMPND>
    UNNAMED

>  <AUTHOR>
    GENERATED BY OPEN BABEL 2.4.90

>  <MASTER>
        0    0    0    0    0    0    0    0   21    0   21    0

