__3fo7_A_rec_4qer_stl_lig_min.pdb
 OpenBabel10201901443D

 17 18  0  0  0  0  0  0  0  0999 V2000
    8.1490  -21.1620   -5.3810 C   0  0  0  0  0  0  0  0  0  0  0  0
    8.2770  -21.6370   -6.6790 C   0  0  0  0  0  0  0  0  0  0  0  0
    7.1570  -21.6370   -7.5430 C   0  0  0  0  0  0  0  0  0  0  0  0
    5.8760  -21.1650   -7.0950 C   0  0  0  0  0  0  0  0  0  0  0  0
    5.7630  -20.6640   -5.7780 C   0  0  0  0  0  0  0  0  0  0  0  0
    6.8960  -20.6460   -4.9160 C   0  0  0  0  0  0  0  0  0  0  0  0
    7.3400  -22.1490   -8.8110 O   0  0  0  0  0  0  0  0  0  0  0  0
    9.2810  -21.2020   -4.6340 O   0  0  0  0  0  0  0  0  0  0  0  0
    4.4940  -20.1070   -5.2880 C   0  0  0  0  0  0  0  0  0  0  0  0
    3.8110  -20.3200   -4.1810 C   0  0  0  0  0  0  0  0  0  0  0  0
    2.5780  -19.4960   -3.9980 C   0  0  0  0  0  0  0  0  0  0  0  0
    1.8730  -19.6030   -2.7790 C   0  0  0  0  0  0  0  0  0  0  0  0
    0.7060  -18.7780   -2.6140 C   0  0  0  0  0  0  0  0  0  0  0  0
    0.2260  -17.9500   -3.6670 C   0  0  0  0  0  0  0  0  0  0  0  0
    0.9130  -17.8740   -4.8940 C   0  0  0  0  0  0  0  0  0  0  0  0
    2.1110  -18.6350   -5.0150 C   0  0  0  0  0  0  0  0  0  0  0  0
   -0.8840  -17.1830   -3.4240 O   0  0  0  0  0  0  0  0  0  0  0  0
  1  2  2  0  0  0  0
  1  6  1  0  0  0  0
  1  8  1  0  0  0  0
  2  3  1  0  0  0  0
  3  7  1  0  0  0  0
  3  4  2  0  0  0  0
  4  5  1  0  0  0  0
  5  9  1  0  0  0  0
  5  6  2  0  0  0  0
  9 10  2  0  0  0  0
 10 11  1  0  0  0  0
 11 16  2  0  0  0  0
 11 12  1  0  0  0  0
 12 13  2  0  0  0  0
 13 14  1  0  0  0  0
 14 15  2  0  0  0  0
 14 17  1  0  0  0  0
 15 16  1  0  0  0  0
M  END
>  <COMPND>
    UNNAMED

>  <AUTHOR>
    GENERATED BY OPEN BABEL 2.4.90

>  <MASTER>
        0    0    0    0    0    0    0    0   17    0   17    0

