__3fo7_A_rec_4qem_hc4_lig_min.pdb
 OpenBabel10201902253D

 12 12  0  0  0  0  0  0  0  0999 V2000
    3.0980  -19.6590   -4.1570 C   0  0  0  0  0  0  0  0  0  0  0  0
    2.2640  -19.9340   -3.0570 C   0  0  0  0  0  0  0  0  0  0  0  0
    1.0520  -19.2010   -2.9240 C   0  0  0  0  0  0  0  0  0  0  0  0
    0.6850  -18.2890   -3.9400 C   0  0  0  0  0  0  0  0  0  0  0  0
    1.4980  -18.0320   -5.0570 C   0  0  0  0  0  0  0  0  0  0  0  0
    2.7360  -18.7060   -5.1290 C   0  0  0  0  0  0  0  0  0  0  0  0
   -0.4840  -17.6290   -3.7400 O   0  0  0  0  0  0  0  0  0  0  0  0
    5.4750  -19.6990   -4.5420 C   0  0  0  0  0  0  0  0  0  0  0  0
    4.3880  -20.4030   -4.2460 C   0  0  0  0  0  0  0  0  0  0  0  0
    6.8180  -20.2800   -4.6600 C   0  0  0  0  0  0  0  0  0  0  0  0
    7.7010  -19.9260   -3.8230 O   0  0  0  0  0  0  0  0  0  0  0  0
    7.0580  -21.1820   -5.5500 O   0  0  0  0  0  0  0  0  0  0  0  0
  1  6  2  0  0  0  0
  1  9  1  0  0  0  0
  1  2  1  0  0  0  0
  2  3  2  0  0  0  0
  3  4  1  0  0  0  0
  4  5  2  0  0  0  0
  4  7  1  0  0  0  0
  5  6  1  0  0  0  0
  8 10  1  0  0  0  0
  8  9  2  0  0  0  0
 10 12  2  0  0  0  0
 10 11  1  0  0  0  0
M  END
>  <COMPND>
    UNNAMED

>  <AUTHOR>
    GENERATED BY OPEN BABEL 2.4.90

>  <MASTER>
        0    0    0    0    0    0    0    0   12    0   12    0

