__4eix_A_rec_2qu9_eug_lig_min.pdb
 OpenBabel10201901463D

 11 11  0  0  0  0  0  0  0  0999 V2000
    2.9600  -20.5700   -3.5460 C   0  0  0  0  0  0  0  0  0  0  0  0
    2.5820  -19.9030   -4.7160 C   0  0  0  0  0  0  0  0  0  0  0  0
    1.5390  -18.9720   -4.7250 C   0  0  0  0  0  0  0  0  0  0  0  0
    0.8410  -18.6950   -3.4330 C   0  0  0  0  0  0  0  0  0  0  0  0
    1.2600  -19.3760   -2.2860 C   0  0  0  0  0  0  0  0  0  0  0  0
    2.3020  -20.3090   -2.3420 C   0  0  0  0  0  0  0  0  0  0  0  0
   -0.1770  -17.7850   -3.3700 O   0  0  0  0  0  0  0  0  0  0  0  0
    4.0820  -21.5390   -3.6100 C   0  0  0  0  0  0  0  0  0  0  0  0
    5.3060  -21.1180   -3.9060 C   0  0  0  0  0  0  0  0  0  0  0  0
    2.1430  -18.0420   -6.9320 C   0  0  0  0  0  0  0  0  0  0  0  0
    1.1790  -18.3300   -5.9060 O   0  0  0  0  0  0  0  0  0  0  0  0
  1  2  2  0  0  0  0
  1  8  1  0  0  0  0
  1  6  1  0  0  0  0
  2  3  1  0  0  0  0
  3 11  1  0  0  0  0
  3  4  2  0  0  0  0
  4  7  1  0  0  0  0
  4  5  1  0  0  0  0
  5  6  2  0  0  0  0
  8  9  2  0  0  0  0
 10 11  1  0  0  0  0
M  END
>  <COMPND>
    UNNAMED

>  <AUTHOR>
    GENERATED BY OPEN BABEL 2.4.90

>  <MASTER>
        0    0    0    0    0    0    0    0   11    0   11    0

