__4hmb_A_rec_2qu9_eug_lig_min.pdb
 OpenBabel10201903293D

 11 11  0  0  0  0  0  0  0  0999 V2000
    2.6630  -19.7940   -4.1700 C   0  0  0  0  0  0  0  0  0  0  0  0
    2.2910  -18.8800   -5.1630 C   0  0  0  0  0  0  0  0  0  0  0  0
    1.1880  -18.0370   -5.0050 C   0  0  0  0  0  0  0  0  0  0  0  0
    0.4160  -18.1280   -3.7280 C   0  0  0  0  0  0  0  0  0  0  0  0
    0.8320  -19.0470   -2.7600 C   0  0  0  0  0  0  0  0  0  0  0  0
    1.9380  -19.8770   -2.9800 C   0  0  0  0  0  0  0  0  0  0  0  0
   -0.6640  -17.3210   -3.5040 O   0  0  0  0  0  0  0  0  0  0  0  0
    3.8510  -20.6510   -4.4040 C   0  0  0  0  0  0  0  0  0  0  0  0
    5.0460  -20.0980   -4.5740 C   0  0  0  0  0  0  0  0  0  0  0  0
    1.6250  -15.9760   -6.2950 C   0  0  0  0  0  0  0  0  0  0  0  0
    0.8350  -17.1430   -6.0120 O   0  0  0  0  0  0  0  0  0  0  0  0
  1  2  2  0  0  0  0
  1  8  1  0  0  0  0
  1  6  1  0  0  0  0
  2  3  1  0  0  0  0
  3 11  1  0  0  0  0
  3  4  2  0  0  0  0
  4  7  1  0  0  0  0
  4  5  1  0  0  0  0
  5  6  2  0  0  0  0
  8  9  2  0  0  0  0
 10 11  1  0  0  0  0
M  END
>  <COMPND>
    UNNAMED

>  <AUTHOR>
    GENERATED BY OPEN BABEL 2.4.90

>  <MASTER>
        0    0    0    0    0    0    0    0   11    0   11    0

