__4qer_A_rec_2qu9_eug_lig_it1_it2_docked.pdb
 OpenBabel10201913383D

 11 11  0  0  0  0  0  0  0  0999 V2000
    2.0760  -20.1630   -4.5660 C   0  0  0  0  0  0  0  0  0  0  0  0
    1.9770  -19.1590   -5.5350 C   0  0  0  0  0  0  0  0  0  0  0  0
    0.9470  -18.2150   -5.5080 C   0  0  0  0  0  0  0  0  0  0  0  0
   -0.0490  -18.2990   -4.3960 C   0  0  0  0  0  0  0  0  0  0  0  0
    0.0980  -19.3120   -3.4430 C   0  0  0  0  0  0  0  0  0  0  0  0
    1.1430  -20.2390   -3.5300 C   0  0  0  0  0  0  0  0  0  0  0  0
   -1.0720  -17.3980   -4.3030 O   0  0  0  0  0  0  0  0  0  0  0  0
    3.2020  -21.1260   -4.6530 C   0  0  0  0  0  0  0  0  0  0  0  0
    3.9110  -21.4180   -3.5690 C   0  0  0  0  0  0  0  0  0  0  0  0
   -0.2090  -17.2040   -7.4430 C   0  0  0  0  0  0  0  0  0  0  0  0
    0.8670  -17.2320   -6.4900 O   0  0  0  0  0  0  0  0  0  0  0  0
  1  2  2  0  0  0  0
  1  8  1  0  0  0  0
  1  6  1  0  0  0  0
  2  3  1  0  0  0  0
  3 11  1  0  0  0  0
  3  4  2  0  0  0  0
  4  7  1  0  0  0  0
  4  5  1  0  0  0  0
  5  6  2  0  0  0  0
  8  9  2  0  0  0  0
 10 11  1  0  0  0  0
M  END
>  <MODEL>
       6

>  <COMPND>
    UNNAMED

>  <AUTHOR>
    GENERATED BY OPEN BABEL 2.4.90

>  <MASTER>
        0    0    0    0    0    0    0    0   11    0   11    0

