__4qf7_A_rec_4qf7_c0r_lig_docked.pdb
 OpenBabel10201906073D

 25 29  0  0  1  0  0  0  0  0999 V2000
    9.9820  -22.0290   -6.7140 C   0  0  0  0  0  0  0  0  0  0  0  0
   11.1780  -21.9480   -7.6390 C   0  0  0  0  0  0  0  0  0  0  0  0
   10.7650  -22.2080   -9.0410 C   0  0  0  0  0  0  0  0  0  0  0  0
    9.4630  -21.6780   -9.4950 C   0  0  0  0  0  0  0  0  0  0  0  0
    8.5260  -21.3550   -8.5800 C   0  0  1  0  0  0  0  0  0  0  0  0
    7.1250  -21.1550   -9.1080 C   0  0  0  0  0  0  0  0  0  0  0  0
    6.0430  -21.2860   -8.1000 C   0  0  0  0  0  0  0  0  0  0  0  0
    6.4420  -20.9070   -6.6850 C   0  0  2  0  0  0  0  0  0  0  0  0
    7.7060  -21.4950   -6.1460 C   0  0  1  0  0  0  0  0  0  0  0  0
    8.8680  -21.1640   -7.1090 C   0  0  1  0  0  0  0  0  0  0  0  0
    7.9670  -21.2120   -4.6100 C   0  0  2  0  0  0  0  0  0  0  0  0
    6.8460  -20.4410   -3.8530 C   0  0  0  0  0  0  0  0  0  0  0  0
    5.5080  -20.1790   -4.5630 C   0  0  1  0  0  0  0  0  0  0  0  0
    5.3660  -21.1730   -5.6890 C   0  0  1  0  0  0  0  0  0  0  0  0
    3.9740  -21.1960   -6.1430 C   0  0  0  0  0  0  0  0  0  0  0  0
    3.4920  -21.4390   -4.7790 C   0  0  0  0  0  0  0  0  0  0  0  0
    4.1330  -20.4070   -3.9080 C   0  0  2  0  0  0  0  0  0  0  0  0
    5.6830  -18.7780   -5.0500 C   0  0  0  0  0  0  0  0  0  0  0  0
    9.4470  -19.9760   -7.6670 C   0  0  0  0  0  0  0  0  0  0  0  0
   11.5400  -22.7570   -9.7590 O   0  0  0  0  0  0  0  0  0  0  0  0
    9.2180  -21.0310   -4.3520 O   0  0  0  0  0  0  0  0  0  0  0  0
    2.9430  -19.4730   -3.9850 C   0  0  0  0  0  0  0  0  0  0  0  0
    3.0040  -18.5100   -4.6740 O   0  0  0  0  0  0  0  0  0  0  0  0
    1.6520  -19.5520   -3.2650 C   0  0  0  0  0  0  0  0  0  0  0  0
    0.7310  -18.8230   -4.0560 O   0  0  0  0  0  0  0  0  0  0  0  0
  1  2  1  0  0  0  0
  1 10  1  0  0  0  0
  2  3  1  0  0  0  0
  3 20  2  0  0  0  0
  3  4  1  0  0  0  0
  5  4  1  6  0  0  0
  5  6  1  0  0  0  0
  5 19  1  0  0  0  0
  5 10  1  0  0  0  0
  6  7  1  0  0  0  0
  8  7  1  6  0  0  0
  8  9  1  0  0  0  0
  8 14  1  0  0  0  0
  9 10  1  0  0  0  0
  9 11  1  0  0  0  0
 10 19  1  0  0  0  0
 11 21  1  0  0  0  0
 11 12  1  0  0  0  0
 12 13  1  0  0  0  0
 13 14  1  0  0  0  0
 13 18  1  0  0  0  0
 13 17  1  0  0  0  0
 14 15  1  0  0  0  0
 15 16  1  0  0  0  0
 16 17  1  0  0  0  0
 17 22  1  0  0  0  0
 22 24  1  0  0  0  0
 22 23  2  0  0  0  0
 24 25  1  0  0  0  0
M  END
>  <MODEL>
       1

>  <COMPND>
    UNNAMED

>  <AUTHOR>
    GENERATED BY OPEN BABEL 2.4.90

>  <MASTER>
        0    0    0    0    0    0    0    0   25    0   25    0

