__4qf7_A_rec_4qer_stl_lig_min.pdb
 OpenBabel10201902013D

 17 18  0  0  0  0  0  0  0  0999 V2000
    8.4010  -21.1400   -5.0510 C   0  0  0  0  0  0  0  0  0  0  0  0
    8.6180  -21.4880   -6.3770 C   0  0  0  0  0  0  0  0  0  0  0  0
    7.5610  -21.3940   -7.3120 C   0  0  0  0  0  0  0  0  0  0  0  0
    6.2540  -20.9560   -6.9100 C   0  0  0  0  0  0  0  0  0  0  0  0
    6.0500  -20.5850   -5.5610 C   0  0  0  0  0  0  0  0  0  0  0  0
    7.1200  -20.6610   -4.6250 C   0  0  0  0  0  0  0  0  0  0  0  0
    7.8320  -21.7810   -8.6080 O   0  0  0  0  0  0  0  0  0  0  0  0
    9.4780  -21.2640   -4.2340 O   0  0  0  0  0  0  0  0  0  0  0  0
    4.7510  -20.0670   -5.1080 C   0  0  0  0  0  0  0  0  0  0  0  0
    4.0090  -20.3550   -4.0570 C   0  0  0  0  0  0  0  0  0  0  0  0
    2.7610  -19.5500   -3.8900 C   0  0  0  0  0  0  0  0  0  0  0  0
    1.9070  -19.8500   -2.8070 C   0  0  0  0  0  0  0  0  0  0  0  0
    0.7270  -19.0430   -2.6490 C   0  0  0  0  0  0  0  0  0  0  0  0
    0.3830  -18.0370   -3.5950 C   0  0  0  0  0  0  0  0  0  0  0  0
    1.2200  -17.7650   -4.6950 C   0  0  0  0  0  0  0  0  0  0  0  0
    2.4250  -18.5170   -4.7930 C   0  0  0  0  0  0  0  0  0  0  0  0
   -0.7510  -17.3010   -3.3650 O   0  0  0  0  0  0  0  0  0  0  0  0
  1  2  2  0  0  0  0
  1  6  1  0  0  0  0
  1  8  1  0  0  0  0
  2  3  1  0  0  0  0
  3  7  1  0  0  0  0
  3  4  2  0  0  0  0
  4  5  1  0  0  0  0
  5  9  1  0  0  0  0
  5  6  2  0  0  0  0
  9 10  2  0  0  0  0
 10 11  1  0  0  0  0
 11 16  2  0  0  0  0
 11 12  1  0  0  0  0
 12 13  2  0  0  0  0
 13 14  1  0  0  0  0
 14 15  2  0  0  0  0
 14 17  1  0  0  0  0
 15 16  1  0  0  0  0
M  END
>  <COMPND>
    UNNAMED

>  <AUTHOR>
    GENERATED BY OPEN BABEL 2.4.90

>  <MASTER>
        0    0    0    0    0    0    0    0   17    0   17    0

