__4qf7_A_rec_1oyf_mhn_lig_docked.pdb
 OpenBabel10201906093D

  9  8  0  0  0  0  0  0  0  0999 V2000
    1.9830  -19.1540   -2.3950 C   0  0  0  0  0  0  0  0  0  0  0  0
    0.8860  -19.1700   -3.4660 C   0  0  0  0  0  0  0  0  0  0  0  0
   -0.9040  -18.2330   -4.6160 O   0  0  0  0  0  0  0  0  0  0  0  0
    0.3270  -17.8730   -3.9830 C   0  0  0  0  0  0  0  0  0  0  0  0
    3.0660  -19.8110   -3.2100 C   0  0  0  0  0  0  0  0  0  0  0  0
    3.0800  -21.2850   -3.5830 C   0  0  0  0  0  0  0  0  0  0  0  0
    4.0380  -21.4530   -4.8220 C   0  0  0  0  0  0  0  0  0  0  0  0
    4.4720  -20.0600   -5.3520 C   0  0  0  0  0  0  0  0  0  0  0  0
    5.3250  -22.2090   -4.4860 C   0  0  0  0  0  0  0  0  0  0  0  0
  1  5  1  0  0  0  0
  1  2  1  0  0  0  0
  2  4  1  0  0  0  0
  3  4  1  0  0  0  0
  5  6  1  0  0  0  0
  6  7  1  0  0  0  0
  7  8  1  0  0  0  0
  7  9  1  0  0  0  0
M  END
>  <MODEL>
      15

>  <COMPND>
    UNNAMED

>  <AUTHOR>
    GENERATED BY OPEN BABEL 2.4.90

>  <MASTER>
        0    0    0    0    0    0    0    0    9    0    9    0

