__4qf7_A_rec_1sv3_ann_lig_min.pdb
 OpenBabel10201903313D

 11 11  0  0  0  0  0  0  0  0999 V2000
    5.6240  -21.4440   -5.4260 C   0  0  0  0  0  0  0  0  0  0  0  0
    5.2570  -22.0620   -4.2360 C   0  0  0  0  0  0  0  0  0  0  0  0
    4.0590  -21.7440   -3.6020 C   0  0  0  0  0  0  0  0  0  0  0  0
    3.2050  -20.7990   -4.1590 C   0  0  0  0  0  0  0  0  0  0  0  0
    3.5680  -20.1740   -5.3430 C   0  0  0  0  0  0  0  0  0  0  0  0
    4.7660  -20.4950   -5.9810 C   0  0  0  0  0  0  0  0  0  0  0  0
    1.9040  -20.4440   -3.4930 C   0  0  0  0  0  0  0  0  0  0  0  0
    1.2330  -19.4850   -3.8570 O   0  0  0  0  0  0  0  0  0  0  0  0
    1.4740  -21.1930   -2.4940 O   0  0  0  0  0  0  0  0  0  0  0  0
    7.1820  -21.4390   -7.3590 C   0  0  0  0  0  0  0  0  0  0  0  0
    6.8240  -21.7900   -6.0170 O   0  0  0  0  0  0  0  0  0  0  0  0
  1 11  1  0  0  0  0
  1  6  2  0  0  0  0
  1  2  1  0  0  0  0
  2  3  2  0  0  0  0
  3  4  1  0  0  0  0
  4  5  2  0  0  0  0
  4  7  1  0  0  0  0
  5  6  1  0  0  0  0
  7  8  2  0  0  0  0
  7  9  1  0  0  0  0
 10 11  1  0  0  0  0
M  END
>  <COMPND>
    UNNAMED

>  <AUTHOR>
    GENERATED BY OPEN BABEL 2.4.90

>  <MASTER>
        0    0    0    0    0    0    0    0   11    0   11    0

