__4qf8_A_rec_1q7a_opb_lig_docked.pdb
 OpenBabel10201905063D

 24 26  0  0  1  0  0  0  0  0999 V2000
    3.1380  -17.8880   -6.9640 N   0  0  0  0  0  0  0  0  0  0  0  0
    3.1820  -18.3010   -5.6470 C   0  0  0  0  0  0  0  0  0  0  0  0
    3.8390  -19.7000   -5.5240 C   0  0  1  0  0  0  0  0  0  0  0  0
    4.1290  -19.9770   -6.9520 C   0  0  0  0  0  0  0  0  0  0  0  0
    3.7370  -18.9420   -7.7570 N   0  0  0  0  0  0  0  0  0  0  0  0
    2.7610  -17.6730   -4.6330 O   0  0  0  0  0  0  0  0  0  0  0  0
    4.6680  -21.0440   -7.3100 O   0  0  0  0  0  0  0  0  0  0  0  0
    3.1530  -19.8120  -11.4420 C   0  0  0  0  0  0  0  0  0  0  0  0
    4.1200  -19.0830  -12.1480 C   0  0  0  0  0  0  0  0  0  0  0  0
    5.0530  -18.2300  -11.4380 C   0  0  0  0  0  0  0  0  0  0  0  0
    4.9830  -18.1320   -9.9730 C   0  0  0  0  0  0  0  0  0  0  0  0
    3.9530  -18.9110   -9.2520 C   0  0  0  0  0  0  0  0  0  0  0  0
    3.0740  -19.7270  -10.0300 C   0  0  0  0  0  0  0  0  0  0  0  0
    4.1650  -19.1970  -13.5010 O   0  0  0  0  0  0  0  0  0  0  0  0
    0.5850  -15.0620   -8.0110 C   0  0  0  0  0  0  0  0  0  0  0  0
    1.1240  -16.3170   -7.5660 C   0  0  0  0  0  0  0  0  0  0  0  0
    2.5680  -16.5390   -7.4650 C   0  0  0  0  0  0  0  0  0  0  0  0
    3.4280  -15.4210   -7.8470 C   0  0  0  0  0  0  0  0  0  0  0  0
    2.8590  -14.1650   -8.2930 C   0  0  0  0  0  0  0  0  0  0  0  0
    1.4380  -13.9960   -8.3660 C   0  0  0  0  0  0  0  0  0  0  0  0
    5.0930  -19.4630   -4.6490 C   0  0  0  0  0  0  0  0  0  0  0  0
    5.8680  -20.4830   -3.7880 C   0  0  0  0  0  0  0  0  0  0  0  0
    7.7620  -21.1820   -5.4500 C   0  0  0  0  0  0  0  0  0  0  0  0
    7.2960  -20.2790   -4.3620 C   0  0  0  0  0  0  0  0  0  0  0  0
  1  5  1  0  0  0  0
  1 17  1  0  0  0  0
  1  2  1  0  0  0  0
  2  3  1  0  0  0  0
  2  6  2  0  0  0  0
  3  4  1  0  0  0  0
  3 21  1  1  0  0  0
  4  5  1  0  0  0  0
  4  7  2  0  0  0  0
  5 12  1  0  0  0  0
  8  9  2  0  0  0  0
  8 13  1  0  0  0  0
  9 14  1  0  0  0  0
  9 10  1  0  0  0  0
 10 11  2  0  0  0  0
 11 12  1  0  0  0  0
 12 13  2  0  0  0  0
 15 20  2  0  0  0  0
 15 16  1  0  0  0  0
 16 17  2  0  0  0  0
 17 18  1  0  0  0  0
 18 19  2  0  0  0  0
 19 20  1  0  0  0  0
 21 22  1  0  0  0  0
 22 24  1  0  0  0  0
 23 24  1  0  0  0  0
M  END
>  <MODEL>
       3

>  <COMPND>
    UNNAMED

>  <AUTHOR>
    GENERATED BY OPEN BABEL 2.4.90

>  <MASTER>
        0    0    0    0    0    0    0    0   24    0   24    0

