__4qmc_A_rec_4qem_hc4_lig_docked.pdb
 OpenBabel10201907013D

 12 12  0  0  0  0  0  0  0  0999 V2000
    2.5290  -19.3960   -4.3110 C   0  0  0  0  0  0  0  0  0  0  0  0
    1.8870  -19.3650   -3.0590 C   0  0  0  0  0  0  0  0  0  0  0  0
    0.6450  -18.6810   -2.9500 C   0  0  0  0  0  0  0  0  0  0  0  0
    0.0570  -18.1330   -4.1130 C   0  0  0  0  0  0  0  0  0  0  0  0
    0.6770  -18.1880   -5.3730 C   0  0  0  0  0  0  0  0  0  0  0  0
    1.9490  -18.7970   -5.4450 C   0  0  0  0  0  0  0  0  0  0  0  0
   -1.1270  -17.4970   -3.9270 O   0  0  0  0  0  0  0  0  0  0  0  0
    4.0600  -20.8950   -5.4130 C   0  0  0  0  0  0  0  0  0  0  0  0
    3.8560  -20.0750   -4.3880 C   0  0  0  0  0  0  0  0  0  0  0  0
    5.3100  -21.6320   -5.6350 C   0  0  0  0  0  0  0  0  0  0  0  0
    5.8950  -21.5000   -6.7520 O   0  0  0  0  0  0  0  0  0  0  0  0
    5.8260  -22.3320   -4.6830 O   0  0  0  0  0  0  0  0  0  0  0  0
  1  6  2  0  0  0  0
  1  9  1  0  0  0  0
  1  2  1  0  0  0  0
  2  3  2  0  0  0  0
  3  4  1  0  0  0  0
  4  5  2  0  0  0  0
  4  7  1  0  0  0  0
  5  6  1  0  0  0  0
  8 10  1  0  0  0  0
  8  9  2  0  0  0  0
 10 12  2  0  0  0  0
 10 11  1  0  0  0  0
M  END
>  <MODEL>
       8

>  <COMPND>
    UNNAMED

>  <AUTHOR>
    GENERATED BY OPEN BABEL 2.4.90

>  <MASTER>
        0    0    0    0    0    0    0    0   12    0   12    0

