__4qmc_A_rec_1fv0_9ar_lig_min.pdb
 OpenBabel10201904463D

 26 29  0  0  0  0  0  0  0  0999 V2000
    5.8020  -20.4670   -8.0820 C   0  0  0  0  0  0  0  0  0  0  0  0
    6.8310  -20.7960   -7.1750 C   0  0  0  0  0  0  0  0  0  0  0  0
    6.7080  -20.5870   -5.8070 C   0  0  0  0  0  0  0  0  0  0  0  0
    5.5340  -20.0280   -5.2470 C   0  0  0  0  0  0  0  0  0  0  0  0
    4.3910  -19.6470   -6.1040 C   0  0  0  0  0  0  0  0  0  0  0  0
    4.5450  -19.8870   -7.5820 C   0  0  0  0  0  0  0  0  0  0  0  0
    3.1550  -19.0610   -5.5960 C   0  0  0  0  0  0  0  0  0  0  0  0
    2.0860  -18.7050   -6.5570 C   0  0  0  0  0  0  0  0  0  0  0  0
    2.2780  -18.9500   -7.9360 C   0  0  0  0  0  0  0  0  0  0  0  0
    3.4520  -19.5360   -8.4590 C   0  0  0  0  0  0  0  0  0  0  0  0
    2.8950  -18.7900   -4.2060 C   0  0  0  0  0  0  0  0  0  0  0  0
    1.6970  -18.2170   -3.7700 C   0  0  0  0  0  0  0  0  0  0  0  0
    0.6960  -17.8780   -4.6820 C   0  0  0  0  0  0  0  0  0  0  0  0
    0.8560  -18.1080   -6.1030 C   0  0  0  0  0  0  0  0  0  0  0  0
    7.0410  -20.4710   -3.6400 C   0  0  0  0  0  0  0  0  0  0  0  0
    7.6550  -20.8730   -4.8780 O   0  0  0  0  0  0  0  0  0  0  0  0
    5.7220  -19.9480   -3.8930 O   0  0  0  0  0  0  0  0  0  0  0  0
   -0.4900  -17.2940   -4.1680 O   0  0  0  0  0  0  0  0  0  0  0  0
    6.0980  -20.9100   -9.5210 C   0  0  0  0  0  0  0  0  0  0  0  0
    6.9630  -20.4360  -10.2560 O   0  0  0  0  0  0  0  0  0  0  0  0
    5.9100  -22.0480   -9.9380 O   0  0  0  0  0  0  0  0  0  0  0  0
    3.0350  -21.0300  -10.4020 O   0  0  0  0  0  0  0  0  0  0  0  0
    2.7010  -18.9770  -10.4180 O   0  0  0  0  0  0  0  0  0  0  0  0
    3.1630  -20.0460  -10.0110 N   0  0  0  0  0  0  0  0  0  0  0  0
   -0.5820  -16.8490   -8.2250 C   0  0  0  0  0  0  0  0  0  0  0  0
    0.1280  -17.4170   -7.0480 O   0  0  0  0  0  0  0  0  0  0  0  0
  1 19  1  0  0  0  0
  1  6  2  0  0  0  0
  1  2  1  0  0  0  0
  2  3  2  0  0  0  0
  3  4  1  0  0  0  0
  3 16  1  0  0  0  0
  4  5  2  0  0  0  0
  4 17  1  0  0  0  0
  5  6  1  0  0  0  0
  5  7  1  0  0  0  0
  6 10  1  0  0  0  0
  7  8  2  0  0  0  0
  7 11  1  0  0  0  0
  8  9  1  0  0  0  0
  8 14  1  0  0  0  0
  9 10  2  0  0  0  0
 10 24  1  0  0  0  0
 11 12  2  0  0  0  0
 12 13  1  0  0  0  0
 13 14  2  0  0  0  0
 13 18  1  0  0  0  0
 14 26  1  0  0  0  0
 15 16  1  0  0  0  0
 15 17  1  0  0  0  0
 19 20  2  0  0  0  0
 19 21  1  0  0  0  0
 22 24  2  0  0  0  0
 23 24  2  0  0  0  0
 25 26  1  0  0  0  0
M  END
>  <COMPND>
    UNNAMED

>  <AUTHOR>
    GENERATED BY OPEN BABEL 2.4.90

>  <MASTER>
        0    0    0    0    0    0    0    0   26    0   26    0

