__4qmc_A_rec_2oli_iop_lig_min.pdb
 OpenBabel10201903263D

 14 15  0  0  0  0  0  0  0  0999 V2000
    8.1770  -20.3970   -5.6680 N   0  0  0  0  0  0  0  0  0  0  0  0
    8.1370  -20.6310   -7.0180 C   0  0  0  0  0  0  0  0  0  0  0  0
    6.8490  -20.9670   -7.4550 C   0  0  0  0  0  0  0  0  0  0  0  0
    5.9950  -20.9360   -6.2160 C   0  0  0  0  0  0  0  0  0  0  0  0
    4.6160  -21.1670   -5.9040 C   0  0  0  0  0  0  0  0  0  0  0  0
    4.1750  -21.0330   -4.5610 C   0  0  0  0  0  0  0  0  0  0  0  0
    5.0930  -20.6710   -3.5250 C   0  0  0  0  0  0  0  0  0  0  0  0
    6.4770  -20.4310   -3.7870 C   0  0  0  0  0  0  0  0  0  0  0  0
    6.9630  -20.5530   -5.1130 C   0  0  0  0  0  0  0  0  0  0  0  0
    6.4640  -21.2890   -8.9060 C   0  0  0  0  0  0  0  0  0  0  0  0
    5.1590  -20.5940   -9.3610 C   0  0  0  0  0  0  0  0  0  0  0  0
    5.1860  -19.0640   -9.4050 C   0  0  0  0  0  0  0  0  0  0  0  0
    3.8610  -18.5700   -9.7090 O   0  0  0  0  0  0  0  0  0  0  0  0
    6.1130  -18.6140  -10.3940 O   0  0  0  0  0  0  0  0  0  0  0  0
  1  2  2  0  0  0  0
  1  9  1  0  0  0  0
  2  3  1  0  0  0  0
  3 10  1  0  0  0  0
  3  4  2  0  0  0  0
  4  5  1  0  0  0  0
  4  9  1  0  0  0  0
  5  6  1  0  0  0  0
  6  7  2  0  0  0  0
  7  8  1  0  0  0  0
  8  9  2  0  0  0  0
 10 11  1  0  0  0  0
 11 12  1  0  0  0  0
 12 14  1  0  0  0  0
 12 13  1  0  0  0  0
M  END
>  <COMPND>
    UNNAMED

>  <AUTHOR>
    GENERATED BY OPEN BABEL 2.4.90

>  <MASTER>
        0    0    0    0    0    0    0    0   14    0   14    0

