__5jbq_A_rec_5jbq_gdp_lig_docked.pdb
 OpenBabel10181920423D

 28 30  0  0  1  0  0  0  0  0999 V2000
  -15.0500   -0.0580  -24.9270 C   0  0  1  0  0  0  0  0  0  0  0  0
  -14.4330   -0.9470  -23.9650 O   0  0  0  0  0  0  0  0  0  0  0  0
  -15.0800   -0.8210  -26.2530 C   0  0  1  0  0  0  0  0  0  0  0  0
  -13.9440   -0.5180  -27.0540 O   0  0  0  0  0  0  0  0  0  0  0  0
  -15.0660   -2.2760  -25.8000 C   0  0  1  0  0  0  0  0  0  0  0  0
  -14.6110   -3.1620  -26.8190 O   0  0  0  0  0  0  0  0  0  0  0  0
  -14.1470   -2.1890  -24.5760 C   0  0  2  0  0  0  0  0  0  0  0  0
  -14.3260   -3.2580  -23.5790 N   0  0  0  0  0  0  0  0  0  0  0  0
  -15.1190   -3.2310  -22.4560 C   0  0  0  0  0  0  0  0  0  0  0  0
  -15.2220   -4.3940  -21.8490 N   0  0  0  0  0  0  0  0  0  0  0  0
  -14.4080   -5.2380  -22.5910 C   0  0  0  0  0  0  0  0  0  0  0  0
  -14.0450   -6.6390  -22.4170 C   0  0  0  0  0  0  0  0  0  0  0  0
  -14.4300   -7.4150  -21.5450 O   0  0  0  0  0  0  0  0  0  0  0  0
  -13.1600   -7.0750  -23.3900 N   0  0  0  0  0  0  0  0  0  0  0  0
  -12.6500   -6.3070  -24.4080 C   0  0  0  0  0  0  0  0  0  0  0  0
  -11.7750   -6.9000  -25.2270 N   0  0  0  0  0  0  0  0  0  0  0  0
  -12.9650   -5.0220  -24.5930 N   0  0  0  0  0  0  0  0  0  0  0  0
  -13.8430   -4.5480  -23.6620 C   0  0  0  0  0  0  0  0  0  0  0  0
  -16.3900    0.4200  -24.4030 C   0  0  0  0  0  0  0  0  0  0  0  0
  -16.1820    1.4240  -23.3840 O   0  0  0  0  0  0  0  0  0  0  0  0
  -17.1580    1.6900  -22.1240 P   0  0  1  0  0  0  0  0  0  0  0  0
  -18.1300    2.7870  -22.4230 O   0  0  0  0  0  0  0  0  0  0  0  0
  -17.7800    0.4530  -21.6220 O   0  0  0  0  0  0  0  0  0  0  0  0
  -16.1270    2.2780  -21.0630 O   0  0  0  0  0  0  0  0  0  0  0  0
  -16.3170    3.0750  -19.7010 P   0  0  0  0  0  0  0  0  0  0  0  0
  -15.9590    4.4730  -19.8170 O   0  0  0  0  0  0  0  0  0  0  0  0
  -17.7550    2.7960  -19.3310 O   0  0  0  0  0  0  0  0  0  0  0  0
  -15.3980    2.3570  -18.7240 O   0  0  0  0  0  0  0  0  0  0  0  0
  1  3  1  0  0  0  0
  1  2  1  0  0  0  0
  1 19  1  1  0  0  0
  2  7  1  0  0  0  0
  3  4  1  6  0  0  0
  3  5  1  0  0  0  0
  5  6  1  6  0  0  0
  5  7  1  0  0  0  0
  7  8  1  1  0  0  0
  8 18  1  0  0  0  0
  8  9  1  0  0  0  0
  9 10  2  0  0  0  0
 10 11  1  0  0  0  0
 11 18  2  0  0  0  0
 11 12  1  0  0  0  0
 12 14  1  0  0  0  0
 12 13  2  0  0  0  0
 14 15  2  0  0  0  0
 15 16  1  0  0  0  0
 15 17  1  0  0  0  0
 17 18  1  0  0  0  0
 19 20  1  0  0  0  0
 20 21  1  0  0  0  0
 21 22  2  6  0  0  0
 21 23  1  0  0  0  0
 21 24  1  0  0  0  0
 24 25  1  0  0  0  0
 25 26  2  0  0  0  0
 25 27  1  0  0  0  0
 25 28  1  0  0  0  0
M  END
>  <MODEL>
       1

>  <COMPND>
    UNNAMED

>  <AUTHOR>
    GENERATED BY OPEN BABEL 2.4.90

>  <MASTER>
        0    0    0    0    0    0    0    0   28    0   28    0

