__1jxl_A_rec_2xca_doc_lig_min.pdb
 OpenBabel10181923193D

 18 19  0  0  1  0  0  0  0  0999 V2000
   24.9640  -18.2240  -12.6390 N   0  0  0  0  0  0  0  0  0  0  0  0
   24.1020  -17.4300  -13.4060 C   0  0  0  0  0  0  0  0  0  0  0  0
   24.5720  -16.8360  -14.5820 N   0  0  0  0  0  0  0  0  0  0  0  0
   25.8990  -17.0260  -14.9820 C   0  0  0  0  0  0  0  0  0  0  0  0
   26.7530  -17.8100  -14.2100 C   0  0  0  0  0  0  0  0  0  0  0  0
   26.2910  -18.4090  -13.0430 C   0  0  0  0  0  0  0  0  0  0  0  0
   22.9470  -17.2390  -13.0290 O   0  0  0  0  0  0  0  0  0  0  0  0
   26.3390  -16.4450  -16.0970 N   0  0  0  0  0  0  0  0  0  0  0  0
   24.4370  -18.9020  -11.4340 C   0  0  1  0  0  0  0  0  0  0  0  0
   24.0470  -20.3640  -11.6540 C   0  0  0  0  0  0  0  0  0  0  0  0
   23.7200  -20.6940  -10.1980 C   0  0  0  0  0  0  0  0  0  0  0  0
   24.8800  -20.0190   -9.4580 C   0  0  2  0  0  0  0  0  0  0  0  0
   25.4060  -18.9910  -10.3770 O   0  0  0  0  0  0  0  0  0  0  0  0
   25.9970  -21.0250   -9.1740 C   0  0  0  0  0  0  0  0  0  0  0  0
   26.0360  -21.3430   -7.7820 O   0  0  0  0  0  0  0  0  0  0  0  0
   25.5810  -22.7850   -7.3060 P   0  0  0  0  0  0  0  0  0  0  0  0
   25.4250  -23.6420   -8.5250 O   0  0  0  0  0  0  0  0  0  0  0  0
   26.5030  -23.2620   -6.2500 O   0  0  0  0  0  0  0  0  0  0  0  0
  1  2  1  0  0  0  0
  1  6  1  0  0  0  0
  2  7  2  0  0  0  0
  2  3  1  0  0  0  0
  3  4  2  0  0  0  0
  4  8  1  0  0  0  0
  4  5  1  0  0  0  0
  5  6  2  0  0  0  0
  9  1  1  6  0  0  0
  9 13  1  0  0  0  0
  9 10  1  0  0  0  0
 10 11  1  0  0  0  0
 11 12  1  0  0  0  0
 12 13  1  0  0  0  0
 12 14  1  6  0  0  0
 14 15  1  0  0  0  0
 15 16  1  0  0  0  0
 16 17  2  0  0  0  0
 16 18  2  0  0  0  0
M  END
>  <COMPND>
    UNNAMED

>  <AUTHOR>
    GENERATED BY OPEN BABEL 2.4.90

>  <MASTER>
        0    0    0    0    0    0    0    0   18    0   18    0

