__1s0m_A_rec_4qwe_ftd_lig_min.pdb
 OpenBabel10191904043D

 24 25  0  0  1  0  0  0  0  0999 V2000
   18.3540  -10.7700   -9.8930 C   0  0  1  0  0  0  0  0  0  0  0  0
   19.0800  -10.1980   -8.8350 O   0  0  0  0  0  0  0  0  0  0  0  0
   19.3370  -11.1820  -11.0120 C   0  0  0  0  0  0  0  0  0  0  0  0
   20.5920   -9.9610  -10.8380 S   0  0  0  0  0  0  0  0  0  0  0  0
   20.0500   -9.2600   -9.3200 C   0  0  2  0  0  0  0  0  0  0  0  0
   15.7830  -11.2260  -10.4560 O   0  0  0  0  0  0  0  0  0  0  0  0
   16.3050  -12.0950   -9.7490 C   0  0  0  0  0  0  0  0  0  0  0  0
   15.6230  -13.1880   -9.3310 N   0  0  0  0  0  0  0  0  0  0  0  0
   16.2080  -14.1510   -8.5530 C   0  0  0  0  0  0  0  0  0  0  0  0
   15.5070  -15.2540   -8.1500 N   0  0  0  0  0  0  0  0  0  0  0  0
   17.5200  -13.9930   -8.1700 C   0  0  0  0  0  0  0  0  0  0  0  0
   18.0970  -14.9020   -7.4140 F   0  0  0  0  0  0  0  0  0  0  0  0
   18.2590  -12.8910   -8.5770 C   0  0  0  0  0  0  0  0  0  0  0  0
   17.6020  -11.8750   -9.2910 N   0  0  0  0  0  0  0  0  0  0  0  0
   21.2220   -9.2420   -8.3550 C   0  0  0  0  0  0  0  0  0  0  0  0
   20.8220  -10.0640   -7.2620 O   0  0  0  0  0  0  0  0  0  0  0  0
   21.7690  -10.2880   -6.0020 P   0  0  1  0  0  0  0  0  0  0  0  0
   22.9230   -9.3290   -6.0840 O   0  0  0  0  0  0  0  0  0  0  0  0
   20.7540  -10.2700   -4.9150 O   0  0  0  0  0  0  0  0  0  0  0  0
   22.3980  -11.7420   -6.2290 O   0  0  0  0  0  0  0  0  0  0  0  0
   23.5430  -12.3490   -5.2500 P   0  0  0  0  0  0  0  0  0  0  0  0
   24.7790  -12.1410   -6.0540 O   0  0  0  0  0  0  0  0  0  0  0  0
   23.6330  -11.4850   -3.9940 O   0  0  0  0  0  0  0  0  0  0  0  0
   23.2280  -13.7770   -4.9110 O   0  0  0  0  0  0  0  0  0  0  0  0
  1  3  1  6  0  0  0
  1 14  1  0  0  0  0
  1  2  1  0  0  0  0
  2  5  1  0  0  0  0
  3  4  1  0  0  0  0
  4  5  1  0  0  0  0
  5 15  1  1  0  0  0
  6  7  2  0  0  0  0
  7  8  1  0  0  0  0
  7 14  1  0  0  0  0
  8  9  1  0  0  0  0
  9 10  1  0  0  0  0
  9 11  2  0  0  0  0
 11 13  1  0  0  0  0
 11 12  1  0  0  0  0
 13 14  1  0  0  0  0
 15 16  1  0  0  0  0
 16 17  1  0  0  0  0
 17 18  2  1  0  0  0
 17 20  1  0  0  0  0
 17 19  1  0  0  0  0
 20 21  1  0  0  0  0
 21 22  2  0  0  0  0
 21 24  1  0  0  0  0
 21 23  1  0  0  0  0
M  END
>  <COMPND>
    UNNAMED

>  <AUTHOR>
    GENERATED BY OPEN BABEL 2.4.90

>  <MASTER>
        0    0    0    0    0    0    0    0   24    0   24    0

