__1s0n_A_rec_2xca_doc_lig_min.pdb
 OpenBabel10181920233D

 18 19  0  0  1  0  0  0  0  0999 V2000
   25.4890  -19.1980  -12.2810 N   0  0  0  0  0  0  0  0  0  0  0  0
   26.0220  -18.2330  -13.1450 C   0  0  0  0  0  0  0  0  0  0  0  0
   25.7480  -18.3060  -14.5160 N   0  0  0  0  0  0  0  0  0  0  0  0
   24.9570  -19.3440  -15.0190 C   0  0  0  0  0  0  0  0  0  0  0  0
   24.4380  -20.3050  -14.1550 C   0  0  0  0  0  0  0  0  0  0  0  0
   24.6990  -20.2340  -12.7900 C   0  0  0  0  0  0  0  0  0  0  0  0
   26.7460  -17.3440  -12.7000 O   0  0  0  0  0  0  0  0  0  0  0  0
   24.7150  -19.4120  -16.3260 N   0  0  0  0  0  0  0  0  0  0  0  0
   25.7280  -19.0700  -10.8260 C   0  0  1  0  0  0  0  0  0  0  0  0
   24.5360  -18.5260  -10.0370 C   0  0  0  0  0  0  0  0  0  0  0  0
   25.1370  -18.6980   -8.6430 C   0  0  0  0  0  0  0  0  0  0  0  0
   25.7780  -20.0860   -8.7490 C   0  0  2  0  0  0  0  0  0  0  0  0
   25.9730  -20.3350  -10.1910 O   0  0  0  0  0  0  0  0  0  0  0  0
   24.8340  -21.1590   -8.2010 C   0  0  0  0  0  0  0  0  0  0  0  0
   24.4000  -22.0210   -9.2540 O   0  0  0  0  0  0  0  0  0  0  0  0
   24.4090  -23.5890   -9.0220 P   0  0  0  0  0  0  0  0  0  0  0  0
   25.8110  -23.9960   -8.6890 O   0  0  0  0  0  0  0  0  0  0  0  0
   23.3470  -23.9440   -8.0540 O   0  0  0  0  0  0  0  0  0  0  0  0
  1  2  1  0  0  0  0
  1  6  1  0  0  0  0
  2  7  2  0  0  0  0
  2  3  1  0  0  0  0
  3  4  2  0  0  0  0
  4  8  1  0  0  0  0
  4  5  1  0  0  0  0
  5  6  2  0  0  0  0
  9  1  1  6  0  0  0
  9 13  1  0  0  0  0
  9 10  1  0  0  0  0
 10 11  1  0  0  0  0
 11 12  1  0  0  0  0
 12 13  1  0  0  0  0
 12 14  1  6  0  0  0
 14 15  1  0  0  0  0
 15 16  1  0  0  0  0
 16 17  2  0  0  0  0
 16 18  2  0  0  0  0
M  END
>  <COMPND>
    UNNAMED

>  <AUTHOR>
    GENERATED BY OPEN BABEL 2.4.90

>  <MASTER>
        0    0    0    0    0    0    0    0   18    0   18    0

