__2agp_A_rec_4gc6_0oh_lig_docked.pdb
 OpenBabel10231911133D

 23 26  0  0  1  0  0  0  0  0999 V2000
   20.9530   -9.8990   -8.7520 C   0  0  1  0  0  0  0  0  0  0  0  0
   20.4560  -10.5630  -10.0270 C   0  0  2  0  0  0  0  0  0  0  0  0
   21.2660   -9.2800  -10.0890 C   0  0  0  0  0  0  0  0  0  0  0  0
   19.7280   -9.4640   -8.0010 C   0  0  1  0  0  0  0  0  0  0  0  0
   19.9210   -8.2110   -7.5180 O   0  0  0  0  0  0  0  0  0  0  0  0
   18.6140   -9.5170   -8.9840 C   0  0  0  0  0  0  0  0  0  0  0  0
   18.9450  -10.6060   -9.9250 C   0  0  2  0  0  0  0  0  0  0  0  0
   18.4760  -11.9220   -9.4750 N   0  0  0  0  0  0  0  0  0  0  0  0
   19.2500  -12.8540   -8.8890 C   0  0  0  0  0  0  0  0  0  0  0  0
   18.4990  -13.9290   -8.6010 N   0  0  0  0  0  0  0  0  0  0  0  0
   17.2150  -13.7180   -8.9990 C   0  0  0  0  0  0  0  0  0  0  0  0
   17.2060  -12.4320   -9.5590 C   0  0  0  0  0  0  0  0  0  0  0  0
   16.0460  -11.9300  -10.0460 N   0  0  0  0  0  0  0  0  0  0  0  0
   14.9140  -12.6550   -9.9950 C   0  0  0  0  0  0  0  0  0  0  0  0
   14.8950  -13.8920   -9.4630 N   0  0  0  0  0  0  0  0  0  0  0  0
   16.0040  -14.4480   -8.9610 C   0  0  0  0  0  0  0  0  0  0  0  0
   15.9400  -15.7750   -8.3960 N   0  0  0  0  0  0  0  0  0  0  0  0
   22.0550  -10.6550   -8.0500 C   0  0  0  0  0  0  0  0  0  0  0  0
   22.6930  -10.0330   -6.9790 O   0  0  0  0  0  0  0  0  0  0  0  0
   22.2130  -12.1330   -5.5350 O   0  0  0  0  0  0  0  0  0  0  0  0
   22.3990  -10.5720   -5.5460 P   0  0  0  0  0  0  0  0  0  0  0  0
   23.6200  -10.1880   -4.7310 O   0  0  0  0  0  0  0  0  0  0  0  0
   21.0930   -9.9710   -5.0910 O   0  0  0  0  0  0  0  0  0  0  0  0
  1  3  1  0  0  0  0
  1  2  1  0  0  0  0
  1  4  1  0  0  0  0
  1 18  1  1  0  0  0
  2  7  1  0  0  0  0
  2  3  1  6  0  0  0
  4  6  1  0  0  0  0
  4  5  1  6  0  0  0
  7  6  1  1  0  0  0
  7  8  1  0  0  0  0
  8 12  1  0  0  0  0
  8  9  1  0  0  0  0
  9 10  2  0  0  0  0
 10 11  1  0  0  0  0
 11 12  2  0  0  0  0
 11 16  1  0  0  0  0
 12 13  1  0  0  0  0
 13 14  2  0  0  0  0
 14 15  1  0  0  0  0
 15 16  2  0  0  0  0
 16 17  1  0  0  0  0
 18 19  1  0  0  0  0
 19 21  1  0  0  0  0
 20 21  2  0  0  0  0
 21 22  1  0  0  0  0
 21 23  1  0  0  0  0
M  END
>  <MODEL>
       8

>  <COMPND>
    UNNAMED

>  <AUTHOR>
    GENERATED BY OPEN BABEL 2.4.90

>  <MASTER>
        0    0    0    0    0    0    0    0   23    0   23    0

