__2agq_A_rec_3khh_doc_lig_min.pdb
 OpenBabel10181918543D

 18 19  0  0  1  0  0  0  0  0999 V2000
   25.7590  -19.1900   -9.8920 N   0  0  0  0  0  0  0  0  0  0  0  0
   25.6840  -17.9040  -10.4440 C   0  0  0  0  0  0  0  0  0  0  0  0
   25.1400  -17.7360  -11.6840 N   0  0  0  0  0  0  0  0  0  0  0  0
   24.6810  -18.7880  -12.3680 C   0  0  0  0  0  0  0  0  0  0  0  0
   24.7430  -20.1130  -11.8240 C   0  0  0  0  0  0  0  0  0  0  0  0
   25.2800  -20.2710  -10.5970 C   0  0  0  0  0  0  0  0  0  0  0  0
   26.1220  -16.9620   -9.7710 O   0  0  0  0  0  0  0  0  0  0  0  0
   24.1630  -18.5630  -13.5820 N   0  0  0  0  0  0  0  0  0  0  0  0
   26.3600  -19.3150   -8.5140 C   0  0  1  0  0  0  0  0  0  0  0  0
   25.3770  -19.2740   -7.3480 C   0  0  0  0  0  0  0  0  0  0  0  0
   26.2540  -19.8600   -6.2520 C   0  0  0  0  0  0  0  0  0  0  0  0
   27.1430  -20.8560   -6.9850 C   0  0  2  0  0  0  0  0  0  0  0  0
   27.0240  -20.5490   -8.3960 O   0  0  0  0  0  0  0  0  0  0  0  0
   26.8170  -22.3260   -6.7640 C   0  0  0  0  0  0  0  0  0  0  0  0
   25.4090  -22.6070   -6.5800 O   0  0  0  0  0  0  0  0  0  0  0  0
   24.5280  -22.9510   -7.8790 P   0  0  0  0  0  0  0  0  0  0  0  0
   25.3840  -23.6920   -8.8380 O   0  0  0  0  0  0  0  0  0  0  0  0
   23.2370  -23.5400   -7.4630 O   0  0  0  0  0  0  0  0  0  0  0  0
  1  2  1  0  0  0  0
  1  6  1  0  0  0  0
  2  7  2  0  0  0  0
  2  3  1  0  0  0  0
  3  4  2  0  0  0  0
  4  8  1  0  0  0  0
  4  5  1  0  0  0  0
  5  6  2  0  0  0  0
  9  1  1  6  0  0  0
  9 13  1  0  0  0  0
  9 10  1  0  0  0  0
 10 11  1  0  0  0  0
 11 12  1  0  0  0  0
 12 13  1  0  0  0  0
 12 14  1  6  0  0  0
 14 15  1  0  0  0  0
 15 16  1  0  0  0  0
 16 17  2  0  0  0  0
 16 18  2  0  0  0  0
M  END
>  <COMPND>
    UNNAMED

>  <AUTHOR>
    GENERATED BY OPEN BABEL 2.4.90

>  <MASTER>
        0    0    0    0    0    0    0    0   18    0   18    0

