__2bqu_A_rec_1s0m_bap_lig_min.pdb
 OpenBabel10191900093D

 23 27  0  0  1  0  0  0  0  0999 V2000
   18.9130  -20.3140   -7.0300 C   0  0  0  0  0  0  0  0  0  0  0  0
   20.1970  -19.8150   -7.4330 C   0  0  0  0  0  0  0  0  0  0  0  0
   20.2950  -18.5910   -8.1780 C   0  0  0  0  0  0  0  0  0  0  0  0
   19.1060  -17.8580   -8.5240 C   0  0  0  0  0  0  0  0  0  0  0  0
   19.1890  -16.6460   -9.2620 C   0  0  0  0  0  0  0  0  0  0  0  0
   18.0050  -15.9370   -9.6060 C   0  0  0  0  0  0  0  0  0  0  0  0
   16.6770  -16.4010   -9.2280 C   0  0  0  0  0  0  0  0  0  0  0  0
   15.4230  -15.6810   -9.5820 C   0  0  0  0  0  0  0  0  0  0  0  0
   14.1720  -16.2310   -9.1460 C   0  0  0  0  0  0  0  0  0  0  0  0
   14.1430  -17.4470   -8.3990 C   0  0  0  0  0  0  0  0  0  0  0  0
   15.3240  -18.1510   -8.0630 C   0  0  0  0  0  0  0  0  0  0  0  0
   15.2470  -19.3720   -7.3150 C   0  0  0  0  0  0  0  0  0  0  0  0
   16.4340  -20.0940   -6.9700 C   0  0  0  0  0  0  0  0  0  0  0  0
   17.7150  -19.5990   -7.3680 C   0  0  0  0  0  0  0  0  0  0  0  0
   17.8040  -18.3630   -8.1220 C   0  0  0  0  0  0  0  0  0  0  0  0
   16.6010  -17.6350   -8.4690 C   0  0  0  0  0  0  0  0  0  0  0  0
   12.8230  -15.5750   -9.4350 C   0  0  1  0  0  0  0  0  0  0  0  0
   12.1430  -15.2940   -8.2120 O   0  0  0  0  0  0  0  0  0  0  0  0
   12.8710  -14.2460  -10.2220 C   0  0  2  0  0  0  0  0  0  0  0  0
   11.6740  -14.0450  -10.9700 O   0  0  0  0  0  0  0  0  0  0  0  0
   14.0610  -14.1240  -11.1900 C   0  0  2  0  0  0  0  0  0  0  0  0
   13.8990  -15.0250  -12.3040 O   0  0  0  0  0  0  0  0  0  0  0  0
   15.4160  -14.3590  -10.4180 C   0  0  0  0  0  0  0  0  0  0  0  0
  1  2  2  0  0  0  0
  1 14  1  0  0  0  0
  2  3  1  0  0  0  0
  3  4  2  0  0  0  0
  4  5  1  0  0  0  0
  4 15  1  0  0  0  0
  5  6  2  0  0  0  0
  6  7  1  0  0  0  0
  7  8  2  0  0  0  0
  7 16  1  0  0  0  0
  8 23  1  0  0  0  0
  8  9  1  0  0  0  0
  9 17  1  0  0  0  0
  9 10  2  0  0  0  0
 10 11  1  0  0  0  0
 11 16  2  0  0  0  0
 11 12  1  0  0  0  0
 12 13  2  0  0  0  0
 13 14  1  0  0  0  0
 14 15  2  0  0  0  0
 15 16  1  0  0  0  0
 17 19  1  0  0  0  0
 17 18  1  1  0  0  0
 19 21  1  0  0  0  0
 19 20  1  6  0  0  0
 21 22  1  6  0  0  0
 21 23  1  0  0  0  0
M  END
>  <COMPND>
    UNNAMED

>  <AUTHOR>
    GENERATED BY OPEN BABEL 2.4.90

>  <MASTER>
        0    0    0    0    0    0    0    0   23    0   23    0

