__2c28_A_rec_3khh_doc_lig_min.pdb
 OpenBabel10181919403D

 18 19  0  0  1  0  0  0  0  0999 V2000
   22.2820  -19.0880  -10.2260 N   0  0  0  0  0  0  0  0  0  0  0  0
   22.0230  -17.8230  -10.7710 C   0  0  0  0  0  0  0  0  0  0  0  0
   21.4440  -16.8620   -9.9940 N   0  0  0  0  0  0  0  0  0  0  0  0
   21.1250  -17.1250   -8.7230 C   0  0  0  0  0  0  0  0  0  0  0  0
   21.3830  -18.4100   -8.1410 C   0  0  0  0  0  0  0  0  0  0  0  0
   21.9580  -19.3520   -8.9150 C   0  0  0  0  0  0  0  0  0  0  0  0
   22.3370  -17.6290  -11.9530 O   0  0  0  0  0  0  0  0  0  0  0  0
   20.5540  -16.1450   -8.0110 N   0  0  0  0  0  0  0  0  0  0  0  0
   22.9340  -20.1070  -11.1280 C   0  0  1  0  0  0  0  0  0  0  0  0
   24.4480  -20.2430  -11.0010 C   0  0  0  0  0  0  0  0  0  0  0  0
   24.6430  -21.5920  -11.6780 C   0  0  0  0  0  0  0  0  0  0  0  0
   23.3760  -22.3630  -11.3320 C   0  0  2  0  0  0  0  0  0  0  0  0
   22.4210  -21.3860  -10.8460 O   0  0  0  0  0  0  0  0  0  0  0  0
   23.5310  -23.4660  -10.2960 C   0  0  0  0  0  0  0  0  0  0  0  0
   23.2300  -23.0620   -8.9390 O   0  0  0  0  0  0  0  0  0  0  0  0
   24.4580  -22.7430   -7.9520 P   0  0  0  0  0  0  0  0  0  0  0  0
   25.6880  -23.3350   -8.5360 O   0  0  0  0  0  0  0  0  0  0  0  0
   24.4490  -21.3080   -7.5950 O   0  0  0  0  0  0  0  0  0  0  0  0
  1  2  1  0  0  0  0
  1  6  1  0  0  0  0
  2  7  2  0  0  0  0
  2  3  1  0  0  0  0
  3  4  2  0  0  0  0
  4  8  1  0  0  0  0
  4  5  1  0  0  0  0
  5  6  2  0  0  0  0
  9  1  1  1  0  0  0
  9 13  1  0  0  0  0
  9 10  1  0  0  0  0
 10 11  1  0  0  0  0
 11 12  1  0  0  0  0
 12 13  1  0  0  0  0
 12 14  1  1  0  0  0
 14 15  1  0  0  0  0
 15 16  1  0  0  0  0
 16 17  2  0  0  0  0
 16 18  2  0  0  0  0
M  END
>  <COMPND>
    UNNAMED

>  <AUTHOR>
    GENERATED BY OPEN BABEL 2.4.90

>  <MASTER>
        0    0    0    0    0    0    0    0   18    0   18    0

