__2c2d_A_rec_3khh_doc_lig_min.pdb
 OpenBabel10181920103D

 18 19  0  0  1  0  0  0  0  0999 V2000
   24.1900  -21.8280  -11.2930 N   0  0  0  0  0  0  0  0  0  0  0  0
   24.2170  -22.2370  -12.6340 C   0  0  0  0  0  0  0  0  0  0  0  0
   23.5750  -23.3840  -13.0000 N   0  0  0  0  0  0  0  0  0  0  0  0
   22.9230  -24.1120  -12.0880 C   0  0  0  0  0  0  0  0  0  0  0  0
   22.8770  -23.7130  -10.7120 C   0  0  0  0  0  0  0  0  0  0  0  0
   23.5120  -22.5780  -10.3580 C   0  0  0  0  0  0  0  0  0  0  0  0
   24.8340  -21.5280  -13.4400 O   0  0  0  0  0  0  0  0  0  0  0  0
   22.3160  -25.2300  -12.5050 N   0  0  0  0  0  0  0  0  0  0  0  0
   24.9080  -20.5470  -10.9480 C   0  0  1  0  0  0  0  0  0  0  0  0
   24.2720  -19.6950   -9.8540 C   0  0  0  0  0  0  0  0  0  0  0  0
   25.4540  -18.8050   -9.5010 C   0  0  0  0  0  0  0  0  0  0  0  0
   26.6660  -19.7030   -9.7140 C   0  0  2  0  0  0  0  0  0  0  0  0
   26.2030  -20.8400  -10.4840 O   0  0  0  0  0  0  0  0  0  0  0  0
   27.3550  -20.2010   -8.4520 C   0  0  0  0  0  0  0  0  0  0  0  0
   26.4610  -20.4570   -7.3420 O   0  0  0  0  0  0  0  0  0  0  0  0
   26.1330  -21.9860   -6.9700 P   0  0  0  0  0  0  0  0  0  0  0  0
   26.1510  -22.7830   -8.2220 O   0  0  0  0  0  0  0  0  0  0  0  0
   26.9750  -22.4120   -5.8320 O   0  0  0  0  0  0  0  0  0  0  0  0
  1  2  1  0  0  0  0
  1  6  1  0  0  0  0
  2  7  2  0  0  0  0
  2  3  1  0  0  0  0
  3  4  2  0  0  0  0
  4  8  1  0  0  0  0
  4  5  1  0  0  0  0
  5  6  2  0  0  0  0
  9  1  1  1  0  0  0
  9 13  1  0  0  0  0
  9 10  1  0  0  0  0
 10 11  1  0  0  0  0
 11 12  1  0  0  0  0
 12 13  1  0  0  0  0
 12 14  1  1  0  0  0
 14 15  1  0  0  0  0
 15 16  1  0  0  0  0
 16 17  2  0  0  0  0
 16 18  2  0  0  0  0
M  END
>  <COMPND>
    UNNAMED

>  <AUTHOR>
    GENERATED BY OPEN BABEL 2.4.90

>  <MASTER>
        0    0    0    0    0    0    0    0   18    0   18    0

