__2ia6_A_rec_4qwa_0g8_lig_min.pdb
 OpenBabel10181919523D

 23 24  0  0  1  0  0  0  0  0999 V2000
   18.0750  -11.2020  -10.2830 C   0  0  1  0  0  0  0  0  0  0  0  0
   18.9710  -11.1540   -9.1610 O   0  0  0  0  0  0  0  0  0  0  0  0
   18.8410  -11.8170  -11.4580 C   0  0  0  0  0  0  0  0  0  0  0  0
   20.4750  -11.0290  -11.2410 S   0  0  0  0  0  0  0  0  0  0  0  0
   20.1040  -10.3740   -9.5770 C   0  0  2  0  0  0  0  0  0  0  0  0
   15.4640  -10.7630  -11.0530 O   0  0  0  0  0  0  0  0  0  0  0  0
   15.6500  -11.7700  -10.3800 C   0  0  0  0  0  0  0  0  0  0  0  0
   14.6170  -12.5780  -10.0640 N   0  0  0  0  0  0  0  0  0  0  0  0
   14.7950  -13.6810   -9.3120 C   0  0  0  0  0  0  0  0  0  0  0  0
   13.7520  -14.4460   -9.0200 N   0  0  0  0  0  0  0  0  0  0  0  0
   16.0540  -14.0200   -8.8420 C   0  0  0  0  0  0  0  0  0  0  0  0
   17.1430  -13.2170   -9.1440 C   0  0  0  0  0  0  0  0  0  0  0  0
   16.9280  -12.0710   -9.9300 N   0  0  0  0  0  0  0  0  0  0  0  0
   21.2420  -10.6180   -8.5870 C   0  0  0  0  0  0  0  0  0  0  0  0
   21.1530   -9.6830   -7.5110 O   0  0  0  0  0  0  0  0  0  0  0  0
   22.0380   -9.9150   -6.1900 P   0  0  1  0  0  0  0  0  0  0  0  0
   23.1860   -8.9860   -6.2140 O   0  0  0  0  0  0  0  0  0  0  0  0
   21.1370   -9.8610   -5.0160 O   0  0  0  0  0  0  0  0  0  0  0  0
   22.5320  -11.4380   -6.3580 O   0  0  0  0  0  0  0  0  0  0  0  0
   23.4560  -12.1820   -5.2670 P   0  0  0  0  0  0  0  0  0  0  0  0
   22.8970  -11.7930   -3.8090 O   0  0  0  0  0  0  0  0  0  0  0  0
   23.1600  -13.7520   -5.4690 O   0  0  0  0  0  0  0  0  0  0  0  0
   24.8950  -11.8760   -5.3890 O   0  0  0  0  0  0  0  0  0  0  0  0
  1  3  1  6  0  0  0
  1 13  1  0  0  0  0
  1  2  1  0  0  0  0
  2  5  1  0  0  0  0
  3  4  1  0  0  0  0
  4  5  1  0  0  0  0
  5 14  1  1  0  0  0
  6  7  2  0  0  0  0
  7  8  1  0  0  0  0
  7 13  1  0  0  0  0
  8  9  2  0  0  0  0
  9 10  1  0  0  0  0
  9 11  1  0  0  0  0
 11 12  2  0  0  0  0
 12 13  1  0  0  0  0
 14 15  1  0  0  0  0
 15 16  1  0  0  0  0
 16 17  2  1  0  0  0
 16 19  1  0  0  0  0
 16 18  1  0  0  0  0
 19 20  1  0  0  0  0
 20 23  2  0  0  0  0
 20 22  1  0  0  0  0
 20 21  1  0  0  0  0
M  END
>  <COMPND>
    UNNAMED

>  <AUTHOR>
    GENERATED BY OPEN BABEL 2.4.90

>  <MASTER>
        0    0    0    0    0    0    0    0   23    0   23    0

