__2ia6_A_rec_3khh_doc_lig_min.pdb
 OpenBabel10191903473D

 18 19  0  0  1  0  0  0  0  0999 V2000
   23.1680  -17.5350   -8.4120 N   0  0  0  0  0  0  0  0  0  0  0  0
   22.1920  -16.5320   -8.3530 C   0  0  0  0  0  0  0  0  0  0  0  0
   21.7150  -16.1290   -7.1390 N   0  0  0  0  0  0  0  0  0  0  0  0
   22.1760  -16.6860   -6.0150 C   0  0  0  0  0  0  0  0  0  0  0  0
   23.1780  -17.7110   -6.0490 C   0  0  0  0  0  0  0  0  0  0  0  0
   23.6450  -18.1020   -7.2520 C   0  0  0  0  0  0  0  0  0  0  0  0
   21.7970  -16.0480   -9.4210 O   0  0  0  0  0  0  0  0  0  0  0  0
   21.6680  -16.2540   -4.8540 N   0  0  0  0  0  0  0  0  0  0  0  0
   23.6660  -17.9330   -9.7800 C   0  0  1  0  0  0  0  0  0  0  0  0
   25.1450  -17.6810  -10.0540 C   0  0  0  0  0  0  0  0  0  0  0  0
   25.3380  -18.5800  -11.2670 C   0  0  0  0  0  0  0  0  0  0  0  0
   24.3860  -19.7420  -11.0170 C   0  0  2  0  0  0  0  0  0  0  0  0
   23.4830  -19.3140   -9.9670 O   0  0  0  0  0  0  0  0  0  0  0  0
   25.0340  -21.0580  -10.6130 C   0  0  0  0  0  0  0  0  0  0  0  0
   24.9360  -21.3660   -9.2010 O   0  0  0  0  0  0  0  0  0  0  0  0
   24.6220  -22.8830   -8.7760 P   0  0  0  0  0  0  0  0  0  0  0  0
   25.9090  -23.6180   -8.6940 O   0  0  0  0  0  0  0  0  0  0  0  0
   23.7110  -22.8950   -7.6120 O   0  0  0  0  0  0  0  0  0  0  0  0
  1  2  1  0  0  0  0
  1  6  1  0  0  0  0
  2  7  2  0  0  0  0
  2  3  1  0  0  0  0
  3  4  2  0  0  0  0
  4  8  1  0  0  0  0
  4  5  1  0  0  0  0
  5  6  2  0  0  0  0
  9  1  1  1  0  0  0
  9 13  1  0  0  0  0
  9 10  1  0  0  0  0
 10 11  1  0  0  0  0
 11 12  1  0  0  0  0
 12 13  1  0  0  0  0
 12 14  1  1  0  0  0
 14 15  1  0  0  0  0
 15 16  1  0  0  0  0
 16 17  2  0  0  0  0
 16 18  2  0  0  0  0
M  END
>  <COMPND>
    UNNAMED

>  <AUTHOR>
    GENERATED BY OPEN BABEL 2.4.90

>  <MASTER>
        0    0    0    0    0    0    0    0   18    0   18    0

