__2imw_P_rec_4gc6_0oh_lig_min.pdb
 OpenBabel10181919593D

 23 26  0  0  1  0  0  0  0  0999 V2000
   21.2230  -10.0280   -8.7120 C   0  0  1  0  0  0  0  0  0  0  0  0
   20.5480  -10.4360  -10.0120 C   0  0  2  0  0  0  0  0  0  0  0  0
   21.4910   -9.2480   -9.9720 C   0  0  0  0  0  0  0  0  0  0  0  0
   20.1230   -9.5900   -7.7880 C   0  0  1  0  0  0  0  0  0  0  0  0
   20.4980   -8.4510   -7.1540 O   0  0  0  0  0  0  0  0  0  0  0  0
   18.9320   -9.3800   -8.6520 C   0  0  0  0  0  0  0  0  0  0  0  0
   19.0560  -10.3410   -9.7670 C   0  0  2  0  0  0  0  0  0  0  0  0
   18.4780  -11.6560   -9.4640 N   0  0  0  0  0  0  0  0  0  0  0  0
   19.1300  -12.6570   -8.8430 C   0  0  0  0  0  0  0  0  0  0  0  0
   18.3030  -13.7080   -8.7220 N   0  0  0  0  0  0  0  0  0  0  0  0
   17.0910  -13.4120   -9.2660 C   0  0  0  0  0  0  0  0  0  0  0  0
   17.2090  -12.0970   -9.7400 C   0  0  0  0  0  0  0  0  0  0  0  0
   16.1450  -11.5110  -10.3390 N   0  0  0  0  0  0  0  0  0  0  0  0
   14.9860  -12.1810  -10.4780 C   0  0  0  0  0  0  0  0  0  0  0  0
   14.8460  -13.4440  -10.0310 N   0  0  0  0  0  0  0  0  0  0  0  0
   15.8570  -14.0820   -9.4280 C   0  0  0  0  0  0  0  0  0  0  0  0
   15.6650  -15.4340   -8.9600 N   0  0  0  0  0  0  0  0  0  0  0  0
   22.2850  -10.9890   -8.2380 C   0  0  0  0  0  0  0  0  0  0  0  0
   22.1710  -11.5050   -6.9480 O   0  0  0  0  0  0  0  0  0  0  0  0
   22.7670  -11.4470   -4.4250 O   0  0  0  0  0  0  0  0  0  0  0  0
   23.1840  -11.0050   -5.8750 P   0  0  0  0  0  0  0  0  0  0  0  0
   24.5020  -11.6540   -6.2570 O   0  0  0  0  0  0  0  0  0  0  0  0
   23.1670   -9.4970   -5.8960 O   0  0  0  0  0  0  0  0  0  0  0  0
  1  3  1  0  0  0  0
  1  2  1  0  0  0  0
  1  4  1  0  0  0  0
  1 18  1  1  0  0  0
  2  7  1  0  0  0  0
  2  3  1  6  0  0  0
  4  6  1  0  0  0  0
  4  5  1  6  0  0  0
  7  6  1  1  0  0  0
  7  8  1  0  0  0  0
  8 12  1  0  0  0  0
  8  9  1  0  0  0  0
  9 10  2  0  0  0  0
 10 11  1  0  0  0  0
 11 12  2  0  0  0  0
 11 16  1  0  0  0  0
 12 13  1  0  0  0  0
 13 14  2  0  0  0  0
 14 15  1  0  0  0  0
 15 16  2  0  0  0  0
 16 17  1  0  0  0  0
 18 19  1  0  0  0  0
 19 21  1  0  0  0  0
 20 21  2  0  0  0  0
 21 22  1  0  0  0  0
 21 23  1  0  0  0  0
M  END
>  <COMPND>
    UNNAMED

>  <AUTHOR>
    GENERATED BY OPEN BABEL 2.4.90

>  <MASTER>
        0    0    0    0    0    0    0    0   23    0   23    0

