__2imw_P_rec_2xca_doc_lig_min.pdb
 OpenBabel10191904493D

 18 19  0  0  1  0  0  0  0  0999 V2000
   25.5270  -20.8630  -12.3140 N   0  0  0  0  0  0  0  0  0  0  0  0
   25.6980  -20.0790  -13.4620 C   0  0  0  0  0  0  0  0  0  0  0  0
   25.2410  -20.5540  -14.6970 N   0  0  0  0  0  0  0  0  0  0  0  0
   24.6280  -21.8080  -14.7830 C   0  0  0  0  0  0  0  0  0  0  0  0
   24.4690  -22.5850  -13.6380 C   0  0  0  0  0  0  0  0  0  0  0  0
   24.9140  -22.1170  -12.4060 C   0  0  0  0  0  0  0  0  0  0  0  0
   26.2700  -18.9930  -13.3840 O   0  0  0  0  0  0  0  0  0  0  0  0
   24.2090  -22.2550  -15.9650 N   0  0  0  0  0  0  0  0  0  0  0  0
   25.9520  -20.3210  -11.0040 C   0  0  1  0  0  0  0  0  0  0  0  0
   24.8040  -19.8200  -10.1270 C   0  0  0  0  0  0  0  0  0  0  0  0
   25.6370  -19.5110   -8.8830 C   0  0  0  0  0  0  0  0  0  0  0  0
   26.5550  -20.7360   -8.8100 C   0  0  2  0  0  0  0  0  0  0  0  0
   26.5760  -21.3100  -10.1690 O   0  0  0  0  0  0  0  0  0  0  0  0
   25.9780  -21.7860   -7.8570 C   0  0  0  0  0  0  0  0  0  0  0  0
   24.5610  -21.8740   -8.0160 O   0  0  0  0  0  0  0  0  0  0  0  0
   23.9090  -23.2780   -8.3550 P   0  0  0  0  0  0  0  0  0  0  0  0
   24.8830  -24.0460   -9.1940 O   0  0  0  0  0  0  0  0  0  0  0  0
   23.4380  -23.9120   -7.1030 O   0  0  0  0  0  0  0  0  0  0  0  0
  1  2  1  0  0  0  0
  1  6  1  0  0  0  0
  2  7  2  0  0  0  0
  2  3  1  0  0  0  0
  3  4  2  0  0  0  0
  4  8  1  0  0  0  0
  4  5  1  0  0  0  0
  5  6  2  0  0  0  0
  9  1  1  6  0  0  0
  9 13  1  0  0  0  0
  9 10  1  0  0  0  0
 10 11  1  0  0  0  0
 11 12  1  0  0  0  0
 12 13  1  0  0  0  0
 12 14  1  1  0  0  0
 14 15  1  0  0  0  0
 15 16  1  0  0  0  0
 16 17  2  0  0  0  0
 16 18  2  0  0  0  0
M  END
>  <COMPND>
    UNNAMED

>  <AUTHOR>
    GENERATED BY OPEN BABEL 2.4.90

>  <MASTER>
        0    0    0    0    0    0    0    0   18    0   18    0

