__2imw_P_rec_3khh_doc_lig_min.pdb
 OpenBabel10191906153D

 18 19  0  0  1  0  0  0  0  0999 V2000
   25.7340  -20.4300  -11.4400 N   0  0  0  0  0  0  0  0  0  0  0  0
   25.9950  -19.6430  -12.5700 C   0  0  0  0  0  0  0  0  0  0  0  0
   25.6340  -20.0990  -13.8050 N   0  0  0  0  0  0  0  0  0  0  0  0
   25.0350  -21.2870  -13.9360 C   0  0  0  0  0  0  0  0  0  0  0  0
   24.7540  -22.1080  -12.7960 C   0  0  0  0  0  0  0  0  0  0  0  0
   25.1110  -21.6500  -11.5790 C   0  0  0  0  0  0  0  0  0  0  0  0
   26.5510  -18.5510  -12.3960 O   0  0  0  0  0  0  0  0  0  0  0  0
   24.7090  -21.6840  -15.1730 N   0  0  0  0  0  0  0  0  0  0  0  0
   26.1440  -19.8710  -10.1000 C   0  0  1  0  0  0  0  0  0  0  0  0
   25.0100  -19.5160   -9.1460 C   0  0  0  0  0  0  0  0  0  0  0  0
   25.7860  -19.4400   -7.8400 C   0  0  0  0  0  0  0  0  0  0  0  0
   26.8800  -20.4870   -8.0020 C   0  0  2  0  0  0  0  0  0  0  0  0
   26.9260  -20.8160   -9.4120 O   0  0  0  0  0  0  0  0  0  0  0  0
   26.7020  -21.7650   -7.1960 C   0  0  0  0  0  0  0  0  0  0  0  0
   25.3260  -22.0880   -6.8810 O   0  0  0  0  0  0  0  0  0  0  0  0
   24.5660  -23.1550   -7.8120 P   0  0  0  0  0  0  0  0  0  0  0  0
   25.5880  -23.9340   -8.5540 O   0  0  0  0  0  0  0  0  0  0  0  0
   23.5500  -23.8750   -7.0150 O   0  0  0  0  0  0  0  0  0  0  0  0
  1  2  1  0  0  0  0
  1  6  1  0  0  0  0
  2  7  2  0  0  0  0
  2  3  1  0  0  0  0
  3  4  2  0  0  0  0
  4  8  1  0  0  0  0
  4  5  1  0  0  0  0
  5  6  2  0  0  0  0
  9  1  1  6  0  0  0
  9 13  1  0  0  0  0
  9 10  1  0  0  0  0
 10 11  1  0  0  0  0
 11 12  1  0  0  0  0
 12 13  1  0  0  0  0
 12 14  1  1  0  0  0
 14 15  1  0  0  0  0
 15 16  1  0  0  0  0
 16 17  2  0  0  0  0
 16 18  2  0  0  0  0
M  END
>  <COMPND>
    UNNAMED

>  <AUTHOR>
    GENERATED BY OPEN BABEL 2.4.90

>  <MASTER>
        0    0    0    0    0    0    0    0   18    0   18    0

