__2j6u_A_rec_3khh_doc_lig_min.pdb
 OpenBabel10191900183D

 18 19  0  0  1  0  0  0  0  0999 V2000
   25.7660  -20.2170  -11.5500 N   0  0  0  0  0  0  0  0  0  0  0  0
   26.2560  -19.4280  -12.6000 C   0  0  0  0  0  0  0  0  0  0  0  0
   26.0640  -19.8330  -13.8890 N   0  0  0  0  0  0  0  0  0  0  0  0
   25.4150  -20.9710  -14.1490 C   0  0  0  0  0  0  0  0  0  0  0  0
   24.9010  -21.7930  -13.0930 C   0  0  0  0  0  0  0  0  0  0  0  0
   25.0920  -21.3850  -11.8220 C   0  0  0  0  0  0  0  0  0  0  0  0
   26.8510  -18.3830  -12.3080 O   0  0  0  0  0  0  0  0  0  0  0  0
   25.2620  -21.3200  -15.4330 N   0  0  0  0  0  0  0  0  0  0  0  0
   25.9970  -19.7150  -10.1460 C   0  0  1  0  0  0  0  0  0  0  0  0
   24.7460  -19.4190   -9.3250 C   0  0  0  0  0  0  0  0  0  0  0  0
   25.3520  -19.3930   -7.9300 C   0  0  0  0  0  0  0  0  0  0  0  0
   26.4780  -20.4170   -8.0010 C   0  0  2  0  0  0  0  0  0  0  0  0
   26.7050  -20.6800   -9.4080 O   0  0  0  0  0  0  0  0  0  0  0  0
   26.2250  -21.7330   -7.2810 C   0  0  0  0  0  0  0  0  0  0  0  0
   24.8280  -22.0910   -7.1570 O   0  0  0  0  0  0  0  0  0  0  0  0
   24.2090  -23.1150   -8.2300 P   0  0  0  0  0  0  0  0  0  0  0  0
   25.3280  -23.8620   -8.8570 O   0  0  0  0  0  0  0  0  0  0  0  0
   23.0960  -23.8670   -7.6150 O   0  0  0  0  0  0  0  0  0  0  0  0
  1  2  1  0  0  0  0
  1  6  1  0  0  0  0
  2  7  2  0  0  0  0
  2  3  1  0  0  0  0
  3  4  2  0  0  0  0
  4  8  1  0  0  0  0
  4  5  1  0  0  0  0
  5  6  2  0  0  0  0
  9  1  1  6  0  0  0
  9 13  1  0  0  0  0
  9 10  1  0  0  0  0
 10 11  1  0  0  0  0
 11 12  1  0  0  0  0
 12 13  1  0  0  0  0
 12 14  1  1  0  0  0
 14 15  1  0  0  0  0
 15 16  1  0  0  0  0
 16 17  2  0  0  0  0
 16 18  2  0  0  0  0
M  END
>  <COMPND>
    UNNAMED

>  <AUTHOR>
    GENERATED BY OPEN BABEL 2.4.90

>  <MASTER>
        0    0    0    0    0    0    0    0   18    0   18    0

