__2jeg_A_rec_1s0o_ttp_lig_docked.pdb
 OpenBabel10191914463D

 29 30  0  0  1  0  0  0  0  0999 V2000
   21.7520  -12.0080   -8.9180 O   0  0  0  0  0  0  0  0  0  0  0  0
   22.8490  -12.5770   -7.9370 P   0  0  1  0  0  0  0  0  0  0  0  0
   23.1490  -13.3850   -8.9140 O   0  0  0  0  0  0  0  0  0  0  0  0
   23.8580  -11.3770   -7.9440 O   0  0  0  0  0  0  0  0  0  0  0  0
   21.4150  -12.5160   -7.0150 O   0  0  0  0  0  0  0  0  0  0  0  0
   21.6080  -11.5420   -5.7000 P   0  0  2  0  0  0  0  0  0  0  0  0
   20.2570  -11.4430   -4.9250 O   0  0  0  0  0  0  0  0  0  0  0  0
   21.9890  -10.1000   -6.1640 O   0  0  0  0  0  0  0  0  0  0  0  0
   23.0150  -11.8420   -5.0030 O   0  0  0  0  0  0  0  0  0  0  0  0
   24.2840  -11.1760   -4.3190 P   0  0  0  0  0  0  0  0  0  0  0  0
   25.2080  -12.0420   -5.2150 O   0  0  0  0  0  0  0  0  0  0  0  0
   24.4550  -11.5980   -2.8040 O   0  0  0  0  0  0  0  0  0  0  0  0
   24.6340   -9.6830   -4.6600 O   0  0  0  0  0  0  0  0  0  0  0  0
   21.8490  -10.5690   -9.6740 C   0  0  0  0  0  0  0  0  0  0  0  0
   20.5430   -9.8000   -9.8320 C   0  0  1  0  0  0  0  0  0  0  0  0
   19.5690  -10.3740  -10.7090 O   0  0  0  0  0  0  0  0  0  0  0  0
   19.8440   -9.4930   -8.4730 C   0  0  1  0  0  0  0  0  0  0  0  0
   20.1480   -8.1600   -8.0830 O   0  0  0  0  0  0  0  0  0  0  0  0
   18.3840   -9.7580   -8.6990 C   0  0  0  0  0  0  0  0  0  0  0  0
   18.3130  -10.4070  -10.0630 C   0  0  2  0  0  0  0  0  0  0  0  0
   17.8080  -11.8260   -9.6670 N   0  0  0  0  0  0  0  0  0  0  0  0
   16.5440  -12.2550  -10.0710 C   0  0  0  0  0  0  0  0  0  0  0  0
   15.8260  -11.5160  -10.7580 O   0  0  0  0  0  0  0  0  0  0  0  0
   16.0160  -13.4610   -9.7540 N   0  0  0  0  0  0  0  0  0  0  0  0
   16.7160  -14.3570   -8.9860 C   0  0  0  0  0  0  0  0  0  0  0  0
   16.0970  -15.5050   -8.7330 O   0  0  0  0  0  0  0  0  0  0  0  0
   18.0620  -14.0440   -8.5170 C   0  0  0  0  0  0  0  0  0  0  0  0
   18.5920  -14.6720   -7.9570 C   0  0  0  0  0  0  0  0  0  0  0  0
   18.5400  -12.7480   -8.8880 C   0  0  0  0  0  0  0  0  0  0  0  0
  1 14  1  0  0  0  0
  1  2  1  0  0  0  0
  2  3  2  6  0  0  0
  2  4  1  0  0  0  0
  2  5  1  0  0  0  0
  5  6  1  0  0  0  0
  6  8  2  6  0  0  0
  6  9  1  0  0  0  0
  6  7  1  0  0  0  0
  9 10  1  0  0  0  0
 10 11  2  0  0  0  0
 10 13  1  0  0  0  0
 10 12  1  0  0  0  0
 15 14  1  1  0  0  0
 15 16  1  0  0  0  0
 15 17  1  0  0  0  0
 16 20  1  0  0  0  0
 17 19  1  0  0  0  0
 17 18  1  6  0  0  0
 20 19  1  1  0  0  0
 20 21  1  0  0  0  0
 21 22  1  0  0  0  0
 21 29  1  0  0  0  0
 22 23  2  0  0  0  0
 22 24  1  0  0  0  0
 24 25  1  0  0  0  0
 25 26  2  0  0  0  0
 25 27  1  0  0  0  0
 27 29  1  0  0  0  0
 27 28  2  0  0  0  0
M  END
>  <MODEL>
       2

>  <COMPND>
    UNNAMED

>  <AUTHOR>
    GENERATED BY OPEN BABEL 2.4.90

>  <MASTER>
        0    0    0    0    0    0    0    0   29    0   29    0

