__2rdj_A_rec_3khh_doc_lig_min.pdb
 OpenBabel10181921003D

 18 19  0  0  1  0  0  0  0  0999 V2000
   25.3700  -21.0460  -12.2710 N   0  0  0  0  0  0  0  0  0  0  0  0
   25.8190  -20.6150  -13.5270 C   0  0  0  0  0  0  0  0  0  0  0  0
   25.4460  -21.3020  -14.6450 N   0  0  0  0  0  0  0  0  0  0  0  0
   24.6590  -22.3780  -14.5450 C   0  0  0  0  0  0  0  0  0  0  0  0
   24.1840  -22.8360  -13.2730 C   0  0  0  0  0  0  0  0  0  0  0  0
   24.5540  -22.1500  -12.1720 C   0  0  0  0  0  0  0  0  0  0  0  0
   26.5450  -19.6140  -13.5670 O   0  0  0  0  0  0  0  0  0  0  0  0
   24.3310  -23.0150  -15.6760 N   0  0  0  0  0  0  0  0  0  0  0  0
   25.8040  -20.2410  -11.0700 C   0  0  1  0  0  0  0  0  0  0  0  0
   24.6850  -19.6410  -10.2260 C   0  0  0  0  0  0  0  0  0  0  0  0
   25.4600  -19.3330   -8.9530 C   0  0  0  0  0  0  0  0  0  0  0  0
   26.5000  -20.4430   -8.8800 C   0  0  2  0  0  0  0  0  0  0  0  0
   26.5350  -21.0600  -10.1910 O   0  0  0  0  0  0  0  0  0  0  0  0
   26.2560  -21.5150   -7.8290 C   0  0  0  0  0  0  0  0  0  0  0  0
   24.8750  -21.6430   -7.4130 O   0  0  0  0  0  0  0  0  0  0  0  0
   24.0150  -22.8670   -8.0020 P   0  0  0  0  0  0  0  0  0  0  0  0
   24.8870  -23.6490   -8.9140 O   0  0  0  0  0  0  0  0  0  0  0  0
   23.3200  -23.5620   -6.8990 O   0  0  0  0  0  0  0  0  0  0  0  0
  1  2  1  0  0  0  0
  1  6  1  0  0  0  0
  2  7  2  0  0  0  0
  2  3  1  0  0  0  0
  3  4  2  0  0  0  0
  4  8  1  0  0  0  0
  4  5  1  0  0  0  0
  5  6  2  0  0  0  0
  9  1  1  6  0  0  0
  9 13  1  0  0  0  0
  9 10  1  0  0  0  0
 10 11  1  0  0  0  0
 11 12  1  0  0  0  0
 12 13  1  0  0  0  0
 12 14  1  1  0  0  0
 14 15  1  0  0  0  0
 15 16  1  0  0  0  0
 16 17  2  0  0  0  0
 16 18  2  0  0  0  0
M  END
>  <COMPND>
    UNNAMED

>  <AUTHOR>
    GENERATED BY OPEN BABEL 2.4.90

>  <MASTER>
        0    0    0    0    0    0    0    0   18    0   18    0

