__2v4q_A_rec_2xca_doc_lig_min.pdb
 OpenBabel10191905153D

 18 19  0  0  1  0  0  0  0  0999 V2000
   21.8830  -20.2930  -10.8230 N   0  0  0  0  0  0  0  0  0  0  0  0
   21.2410  -19.4690  -11.7570 C   0  0  0  0  0  0  0  0  0  0  0  0
   20.1250  -19.9500  -12.4500 N   0  0  0  0  0  0  0  0  0  0  0  0
   19.6610  -21.2500  -12.2200 C   0  0  0  0  0  0  0  0  0  0  0  0
   20.3100  -22.0660  -11.2960 C   0  0  0  0  0  0  0  0  0  0  0  0
   21.4160  -21.5930  -10.5980 C   0  0  0  0  0  0  0  0  0  0  0  0
   21.6760  -18.3410  -11.9800 O   0  0  0  0  0  0  0  0  0  0  0  0
   18.6070  -21.7010  -12.8950 N   0  0  0  0  0  0  0  0  0  0  0  0
   23.0190  -19.7500  -10.0470 C   0  0  1  0  0  0  0  0  0  0  0  0
   23.0830  -20.2380   -8.5990 C   0  0  0  0  0  0  0  0  0  0  0  0
   24.4190  -19.5880   -8.2390 C   0  0  0  0  0  0  0  0  0  0  0  0
   25.2590  -19.8910   -9.4850 C   0  0  2  0  0  0  0  0  0  0  0  0
   24.2940  -20.1550  -10.5710 O   0  0  0  0  0  0  0  0  0  0  0  0
   26.1000  -21.1520   -9.2740 C   0  0  0  0  0  0  0  0  0  0  0  0
   26.2150  -21.4440   -7.8810 O   0  0  0  0  0  0  0  0  0  0  0  0
   25.7960  -22.8800   -7.3550 P   0  0  0  0  0  0  0  0  0  0  0  0
   25.6550  -23.7790   -8.5440 O   0  0  0  0  0  0  0  0  0  0  0  0
   26.7330  -23.3000   -6.2880 O   0  0  0  0  0  0  0  0  0  0  0  0
  1  2  1  0  0  0  0
  1  6  1  0  0  0  0
  2  7  2  0  0  0  0
  2  3  1  0  0  0  0
  3  4  2  0  0  0  0
  4  8  1  0  0  0  0
  4  5  1  0  0  0  0
  5  6  2  0  0  0  0
  9  1  1  6  0  0  0
  9 13  1  0  0  0  0
  9 10  1  0  0  0  0
 10 11  1  0  0  0  0
 11 12  1  0  0  0  0
 12 13  1  0  0  0  0
 12 14  1  1  0  0  0
 14 15  1  0  0  0  0
 15 16  1  0  0  0  0
 16 17  2  0  0  0  0
 16 18  2  0  0  0  0
M  END
>  <COMPND>
    UNNAMED

>  <AUTHOR>
    GENERATED BY OPEN BABEL 2.4.90

>  <MASTER>
        0    0    0    0    0    0    0    0   18    0   18    0

