__2v4r_A_rec_1s0o_ttp_lig_docked.pdb
 OpenBabel10191917583D

 29 30  0  0  1  0  0  0  0  0999 V2000
   21.6130  -12.2470   -8.3940 O   0  0  0  0  0  0  0  0  0  0  0  0
   22.7560  -12.6910   -7.4010 P   0  0  1  0  0  0  0  0  0  0  0  0
   22.7310  -13.8220   -8.0470 O   0  0  0  0  0  0  0  0  0  0  0  0
   23.9380  -11.8190   -7.9520 O   0  0  0  0  0  0  0  0  0  0  0  0
   21.5470  -12.0080   -6.4110 O   0  0  0  0  0  0  0  0  0  0  0  0
   22.1140  -10.6680   -5.6370 P   0  0  2  0  0  0  0  0  0  0  0  0
   20.9710  -10.0450   -4.7750 O   0  0  0  0  0  0  0  0  0  0  0  0
   22.5450   -9.5970   -6.6880 O   0  0  0  0  0  0  0  0  0  0  0  0
   23.5920  -10.9390   -5.0950 O   0  0  0  0  0  0  0  0  0  0  0  0
   24.5220  -10.8960   -3.8090 P   0  0  0  0  0  0  0  0  0  0  0  0
   24.4570  -12.4430   -3.7230 O   0  0  0  0  0  0  0  0  0  0  0  0
   23.8020  -10.2580   -2.5530 O   0  0  0  0  0  0  0  0  0  0  0  0
   26.0430  -10.5400   -3.9820 O   0  0  0  0  0  0  0  0  0  0  0  0
   21.8000  -11.1510   -9.5830 C   0  0  0  0  0  0  0  0  0  0  0  0
   20.5890  -10.2800   -9.8940 C   0  0  1  0  0  0  0  0  0  0  0  0
   19.6600  -10.8010  -10.8510 O   0  0  0  0  0  0  0  0  0  0  0  0
   19.7880   -9.8660   -8.6230 C   0  0  1  0  0  0  0  0  0  0  0  0
   20.1680   -8.5500   -8.2410 O   0  0  0  0  0  0  0  0  0  0  0  0
   18.3400  -10.0140   -8.9900 C   0  0  0  0  0  0  0  0  0  0  0  0
   18.3480  -10.7040  -10.3350 C   0  0  2  0  0  0  0  0  0  0  0  0
   17.6830  -12.0600   -9.9540 N   0  0  0  0  0  0  0  0  0  0  0  0
   16.3630  -12.3180  -10.3220 C   0  0  0  0  0  0  0  0  0  0  0  0
   15.7210  -11.4770  -10.9660 O   0  0  0  0  0  0  0  0  0  0  0  0
   15.7000  -13.4580  -10.0140 N   0  0  0  0  0  0  0  0  0  0  0  0
   16.3070  -14.4530   -9.2930 C   0  0  0  0  0  0  0  0  0  0  0  0
   15.5580  -15.5230   -9.0450 O   0  0  0  0  0  0  0  0  0  0  0  0
   17.6970  -14.3230   -8.8650 C   0  0  0  0  0  0  0  0  0  0  0  0
   18.1620  -15.0270   -8.3400 C   0  0  0  0  0  0  0  0  0  0  0  0
   18.3200  -13.0860   -9.2240 C   0  0  0  0  0  0  0  0  0  0  0  0
  1 14  1  0  0  0  0
  1  2  1  0  0  0  0
  2  3  2  1  0  0  0
  2  4  1  0  0  0  0
  2  5  1  0  0  0  0
  5  6  1  0  0  0  0
  6  8  2  6  0  0  0
  6  9  1  0  0  0  0
  6  7  1  0  0  0  0
  9 10  1  0  0  0  0
 10 11  2  0  0  0  0
 10 13  1  0  0  0  0
 10 12  1  0  0  0  0
 15 14  1  1  0  0  0
 15 16  1  0  0  0  0
 15 17  1  0  0  0  0
 16 20  1  0  0  0  0
 17 19  1  0  0  0  0
 17 18  1  6  0  0  0
 20 19  1  1  0  0  0
 20 21  1  0  0  0  0
 21 22  1  0  0  0  0
 21 29  1  0  0  0  0
 22 23  2  0  0  0  0
 22 24  1  0  0  0  0
 24 25  1  0  0  0  0
 25 26  2  0  0  0  0
 25 27  1  0  0  0  0
 27 29  1  0  0  0  0
 27 28  2  0  0  0  0
M  END
>  <MODEL>
       2

>  <COMPND>
    UNNAMED

>  <AUTHOR>
    GENERATED BY OPEN BABEL 2.4.90

>  <MASTER>
        0    0    0    0    0    0    0    0   29    0   29    0

