__2v4r_A_rec_1jxl_dg3_lig_min.pdb
 OpenBabel10181922573D

 30 32  0  0  1  0  0  0  0  0999 V2000
   20.5840  -10.4090  -10.5720 C   0  0  1  0  0  0  0  0  0  0  0  0
   19.4410  -11.3050  -10.8930 O   0  0  0  0  0  0  0  0  0  0  0  0
   20.0170   -9.3960   -9.5600 C   0  0  0  0  0  0  0  0  0  0  0  0
   18.8480  -10.1520   -8.9030 C   0  0  0  0  0  0  0  0  0  0  0  0
   18.3220  -11.0160  -10.0610 C   0  0  2  0  0  0  0  0  0  0  0  0
   17.7370  -12.3220   -9.7030 N   0  0  0  0  0  0  0  0  0  0  0  0
   18.2640  -13.3940   -8.9820 C   0  0  0  0  0  0  0  0  0  0  0  0
   17.4240  -14.4080   -8.8240 N   0  0  0  0  0  0  0  0  0  0  0  0
   16.2490  -13.9220   -9.4160 C   0  0  0  0  0  0  0  0  0  0  0  0
   14.9010  -14.4490   -9.4670 C   0  0  0  0  0  0  0  0  0  0  0  0
   14.5620  -15.5350   -8.9750 O   0  0  0  0  0  0  0  0  0  0  0  0
   13.9570  -13.6210  -10.1720 N   0  0  0  0  0  0  0  0  0  0  0  0
   14.2930  -12.3990  -10.7880 C   0  0  0  0  0  0  0  0  0  0  0  0
   13.3640  -11.6930  -11.4480 N   0  0  0  0  0  0  0  0  0  0  0  0
   15.5470  -11.9120  -10.7410 N   0  0  0  0  0  0  0  0  0  0  0  0
   16.4470  -12.6840  -10.0450 C   0  0  0  0  0  0  0  0  0  0  0  0
   21.8350  -11.1600  -10.0890 C   0  0  0  0  0  0  0  0  0  0  0  0
   21.5580  -12.5860   -9.9890 O   0  0  0  0  0  0  0  0  0  0  0  0
   22.4570  -13.8020   -9.4210 P   0  0  1  0  0  0  0  0  0  0  0  0
   21.7030  -15.1020   -9.5100 O   0  0  0  0  0  0  0  0  0  0  0  0
   23.8580  -13.6560   -9.9850 O   0  0  0  0  0  0  0  0  0  0  0  0
   22.5080  -13.7130   -7.7790 O   0  0  0  0  0  0  0  0  0  0  0  0
   23.1690  -12.7360   -6.6700 P   0  0  1  0  0  0  0  0  0  0  0  0
   22.9480  -13.4090   -5.3980 O   0  0  0  0  0  0  0  0  0  0  0  0
   24.4020  -12.1170   -7.1550 O   0  0  0  0  0  0  0  0  0  0  0  0
   21.9750  -11.6500   -6.6710 O   0  0  0  0  0  0  0  0  0  0  0  0
   21.9730  -10.3790   -5.6960 P   0  0  0  0  0  0  0  0  0  0  0  0
   21.6100  -11.2300   -4.5330 O   0  0  0  0  0  0  0  0  0  0  0  0
   23.3080   -9.6640   -5.7430 O   0  0  0  0  0  0  0  0  0  0  0  0
   20.7820   -9.3930   -6.1670 O   0  0  0  0  0  0  0  0  0  0  0  0
  1  2  1  0  0  0  0
  1 17  1  1  0  0  0
  1  3  1  0  0  0  0
  2  5  1  0  0  0  0
  3  4  1  0  0  0  0
  5  4  1  1  0  0  0
  5  6  1  0  0  0  0
  6 16  1  0  0  0  0
  6  7  1  0  0  0  0
  7  8  2  0  0  0  0
  8  9  1  0  0  0  0
  9 16  2  0  0  0  0
  9 10  1  0  0  0  0
 10 12  1  0  0  0  0
 10 11  2  0  0  0  0
 12 13  2  0  0  0  0
 13 14  1  0  0  0  0
 13 15  1  0  0  0  0
 15 16  1  0  0  0  0
 17 18  1  0  0  0  0
 18 19  1  0  0  0  0
 19 21  2  6  0  0  0
 19 20  1  0  0  0  0
 19 22  1  0  0  0  0
 22 23  1  0  0  0  0
 23 25  2  6  0  0  0
 23 26  1  0  0  0  0
 23 24  1  0  0  0  0
 26 27  1  0  0  0  0
 27 29  2  0  0  0  0
 27 30  1  0  0  0  0
 27 28  1  0  0  0  0
M  END
>  <COMPND>
    UNNAMED

>  <AUTHOR>
    GENERATED BY OPEN BABEL 2.4.90

>  <MASTER>
        0    0    0    0    0    0    0    0   30    0   30    0

