__2w8k_A_rec_2xca_doc_lig_min.pdb
 OpenBabel10191902503D

 18 19  0  0  1  0  0  0  0  0999 V2000
   25.7310  -17.1890  -12.6040 N   0  0  0  0  0  0  0  0  0  0  0  0
   26.7580  -16.4840  -13.2470 C   0  0  0  0  0  0  0  0  0  0  0  0
   26.4880  -15.8090  -14.4420 N   0  0  0  0  0  0  0  0  0  0  0  0
   25.2030  -15.8460  -14.9950 C   0  0  0  0  0  0  0  0  0  0  0  0
   24.1910  -16.5550  -14.3540 C   0  0  0  0  0  0  0  0  0  0  0  0
   24.4490  -17.2240  -13.1630 C   0  0  0  0  0  0  0  0  0  0  0  0
   27.8920  -16.4860  -12.7730 O   0  0  0  0  0  0  0  0  0  0  0  0
   24.9620  -15.2110  -16.1400 N   0  0  0  0  0  0  0  0  0  0  0  0
   26.0120  -17.8420  -11.3060 C   0  0  1  0  0  0  0  0  0  0  0  0
   24.8200  -17.8800  -10.3500 C   0  0  0  0  0  0  0  0  0  0  0  0
   25.4760  -18.7310   -9.2630 C   0  0  0  0  0  0  0  0  0  0  0  0
   26.1870  -19.8040  -10.0930 C   0  0  2  0  0  0  0  0  0  0  0  0
   26.3470  -19.2330  -11.4450 O   0  0  0  0  0  0  0  0  0  0  0  0
   25.3230  -21.0610  -10.2050 C   0  0  0  0  0  0  0  0  0  0  0  0
   25.8810  -22.1180   -9.4210 O   0  0  0  0  0  0  0  0  0  0  0  0
   24.9660  -22.8590   -8.3600 P   0  0  0  0  0  0  0  0  0  0  0  0
   24.7740  -24.2690   -8.8250 O   0  0  0  0  0  0  0  0  0  0  0  0
   25.5310  -22.6570   -7.0060 O   0  0  0  0  0  0  0  0  0  0  0  0
  1  2  1  0  0  0  0
  1  6  1  0  0  0  0
  2  7  2  0  0  0  0
  2  3  1  0  0  0  0
  3  4  2  0  0  0  0
  4  8  1  0  0  0  0
  4  5  1  0  0  0  0
  5  6  2  0  0  0  0
  9  1  1  6  0  0  0
  9 13  1  0  0  0  0
  9 10  1  0  0  0  0
 10 11  1  0  0  0  0
 11 12  1  0  0  0  0
 12 13  1  0  0  0  0
 12 14  1  6  0  0  0
 14 15  1  0  0  0  0
 15 16  1  0  0  0  0
 16 17  2  0  0  0  0
 16 18  2  0  0  0  0
M  END
>  <COMPND>
    UNNAMED

>  <AUTHOR>
    GENERATED BY OPEN BABEL 2.4.90

>  <MASTER>
        0    0    0    0    0    0    0    0   18    0   18    0

