__2w9b_A_rec_2xca_doc_lig_min.pdb
 OpenBabel10191906363D

 18 19  0  0  1  0  0  0  0  0999 V2000
   22.2950  -19.2800  -11.4350 N   0  0  0  0  0  0  0  0  0  0  0  0
   21.7690  -18.5530  -12.5100 C   0  0  0  0  0  0  0  0  0  0  0  0
   20.6610  -19.0510  -13.2050 N   0  0  0  0  0  0  0  0  0  0  0  0
   20.0910  -20.2730  -12.8330 C   0  0  0  0  0  0  0  0  0  0  0  0
   20.6240  -20.9940  -11.7680 C   0  0  0  0  0  0  0  0  0  0  0  0
   21.7210  -20.5030  -11.0690 C   0  0  0  0  0  0  0  0  0  0  0  0
   22.2980  -17.4970  -12.8530 O   0  0  0  0  0  0  0  0  0  0  0  0
   19.0450  -20.7430  -13.5100 N   0  0  0  0  0  0  0  0  0  0  0  0
   23.4230  -18.7110  -10.6650 C   0  0  1  0  0  0  0  0  0  0  0  0
   23.4340  -19.0960   -9.1850 C   0  0  0  0  0  0  0  0  0  0  0  0
   24.7760  -18.4550   -8.8330 C   0  0  0  0  0  0  0  0  0  0  0  0
   25.6420  -18.8660  -10.0290 C   0  0  2  0  0  0  0  0  0  0  0  0
   24.7020  -19.1830  -11.1220 O   0  0  0  0  0  0  0  0  0  0  0  0
   26.4440  -20.1280   -9.7060 C   0  0  0  0  0  0  0  0  0  0  0  0
   26.2830  -20.4800   -8.3310 O   0  0  0  0  0  0  0  0  0  0  0  0
   25.7480  -21.9250   -7.9600 P   0  0  0  0  0  0  0  0  0  0  0  0
   25.5770  -22.6920   -9.2350 O   0  0  0  0  0  0  0  0  0  0  0  0
   26.6200  -22.5150   -6.9190 O   0  0  0  0  0  0  0  0  0  0  0  0
  1  2  1  0  0  0  0
  1  6  1  0  0  0  0
  2  7  2  0  0  0  0
  2  3  1  0  0  0  0
  3  4  2  0  0  0  0
  4  8  1  0  0  0  0
  4  5  1  0  0  0  0
  5  6  2  0  0  0  0
  9  1  1  6  0  0  0
  9 13  1  0  0  0  0
  9 10  1  0  0  0  0
 10 11  1  0  0  0  0
 11 12  1  0  0  0  0
 12 13  1  0  0  0  0
 12 14  1  1  0  0  0
 14 15  1  0  0  0  0
 15 16  1  0  0  0  0
 16 17  2  0  0  0  0
 16 18  2  0  0  0  0
M  END
>  <COMPND>
    UNNAMED

>  <AUTHOR>
    GENERATED BY OPEN BABEL 2.4.90

>  <MASTER>
        0    0    0    0    0    0    0    0   18    0   18    0

