__3gij_A_rec_3khh_doc_lig_min.pdb
 OpenBabel10191906363D

 18 19  0  0  1  0  0  0  0  0999 V2000
   24.4100  -17.9580  -10.2940 N   0  0  0  0  0  0  0  0  0  0  0  0
   24.9210  -16.6950  -10.6220 C   0  0  0  0  0  0  0  0  0  0  0  0
   24.8330  -16.2470  -11.9080 N   0  0  0  0  0  0  0  0  0  0  0  0
   24.2610  -17.0060  -12.8480 C   0  0  0  0  0  0  0  0  0  0  0  0
   23.7270  -18.2990  -12.5370 C   0  0  0  0  0  0  0  0  0  0  0  0
   23.8160  -18.7330  -11.2640 C   0  0  0  0  0  0  0  0  0  0  0  0
   25.4410  -16.0300   -9.7160 O   0  0  0  0  0  0  0  0  0  0  0  0
   24.2080  -16.5160  -14.0930 N   0  0  0  0  0  0  0  0  0  0  0  0
   24.5250  -18.3960   -8.8550 C   0  0  1  0  0  0  0  0  0  0  0  0
   23.2120  -18.5640   -8.0980 C   0  0  0  0  0  0  0  0  0  0  0  0
   23.6970  -19.4040   -6.9250 C   0  0  0  0  0  0  0  0  0  0  0  0
   24.8110  -20.2560   -7.5200 C   0  0  2  0  0  0  0  0  0  0  0  0
   25.1540  -19.6530   -8.7920 O   0  0  0  0  0  0  0  0  0  0  0  0
   24.4790  -21.7260   -7.7380 C   0  0  0  0  0  0  0  0  0  0  0  0
   23.6770  -21.9910   -8.9140 O   0  0  0  0  0  0  0  0  0  0  0  0
   24.0370  -23.2820   -9.8010 P   0  0  0  0  0  0  0  0  0  0  0  0
   25.2640  -23.9020   -9.2430 O   0  0  0  0  0  0  0  0  0  0  0  0
   22.8280  -24.1130   -9.9820 O   0  0  0  0  0  0  0  0  0  0  0  0
  1  2  1  0  0  0  0
  1  6  1  0  0  0  0
  2  7  2  0  0  0  0
  2  3  1  0  0  0  0
  3  4  2  0  0  0  0
  4  8  1  0  0  0  0
  4  5  1  0  0  0  0
  5  6  2  0  0  0  0
  9  1  1  6  0  0  0
  9 13  1  0  0  0  0
  9 10  1  0  0  0  0
 10 11  1  0  0  0  0
 11 12  1  0  0  0  0
 12 13  1  0  0  0  0
 12 14  1  6  0  0  0
 14 15  1  0  0  0  0
 15 16  1  0  0  0  0
 16 17  2  0  0  0  0
 16 18  2  0  0  0  0
M  END
>  <COMPND>
    UNNAMED

>  <AUTHOR>
    GENERATED BY OPEN BABEL 2.4.90

>  <MASTER>
        0    0    0    0    0    0    0    0   18    0   18    0

