__3gij_A_rec_2xca_doc_lig_min.pdb
 OpenBabel10181921353D

 18 19  0  0  1  0  0  0  0  0999 V2000
   22.5660  -18.0010  -12.0440 N   0  0  0  0  0  0  0  0  0  0  0  0
   21.9110  -17.4450  -13.1510 C   0  0  0  0  0  0  0  0  0  0  0  0
   21.4480  -16.1260  -13.0890 N   0  0  0  0  0  0  0  0  0  0  0  0
   21.6290  -15.3730  -11.9240 C   0  0  0  0  0  0  0  0  0  0  0  0
   22.2740  -15.9350  -10.8250 C   0  0  0  0  0  0  0  0  0  0  0  0
   22.7430  -17.2430  -10.8820 C   0  0  0  0  0  0  0  0  0  0  0  0
   21.7240  -18.1260  -14.1580 O   0  0  0  0  0  0  0  0  0  0  0  0
   21.1720  -14.1230  -11.8720 N   0  0  0  0  0  0  0  0  0  0  0  0
   23.1120  -19.3730  -12.1460 C   0  0  1  0  0  0  0  0  0  0  0  0
   24.5980  -19.4350  -12.5020 C   0  0  0  0  0  0  0  0  0  0  0  0
   24.7640  -20.9470  -12.3560 C   0  0  0  0  0  0  0  0  0  0  0  0
   23.9830  -21.2240  -11.0680 C   0  0  2  0  0  0  0  0  0  0  0  0
   23.0570  -20.0870  -10.9000 O   0  0  0  0  0  0  0  0  0  0  0  0
   24.9240  -21.2560   -9.8620 C   0  0  0  0  0  0  0  0  0  0  0  0
   24.2530  -21.8000   -8.7240 O   0  0  0  0  0  0  0  0  0  0  0  0
   24.3380  -23.3590   -8.4480 P   0  0  0  0  0  0  0  0  0  0  0  0
   25.7080  -23.8190   -8.8400 O   0  0  0  0  0  0  0  0  0  0  0  0
   23.8950  -23.6330   -7.0620 O   0  0  0  0  0  0  0  0  0  0  0  0
  1  2  1  0  0  0  0
  1  6  1  0  0  0  0
  2  7  2  0  0  0  0
  2  3  1  0  0  0  0
  3  4  2  0  0  0  0
  4  8  1  0  0  0  0
  4  5  1  0  0  0  0
  5  6  2  0  0  0  0
  9  1  1  1  0  0  0
  9 13  1  0  0  0  0
  9 10  1  0  0  0  0
 10 11  1  0  0  0  0
 11 12  1  0  0  0  0
 12 13  1  0  0  0  0
 12 14  1  1  0  0  0
 14 15  1  0  0  0  0
 15 16  1  0  0  0  0
 16 17  2  0  0  0  0
 16 18  2  0  0  0  0
M  END
>  <COMPND>
    UNNAMED

>  <AUTHOR>
    GENERATED BY OPEN BABEL 2.4.90

>  <MASTER>
        0    0    0    0    0    0    0    0   18    0   18    0

