__3khg_A_rec_2xca_doc_lig_min.pdb
 OpenBabel10181921013D

 18 19  0  0  1  0  0  0  0  0999 V2000
   23.8570  -19.4100  -11.5640 N   0  0  0  0  0  0  0  0  0  0  0  0
   24.0030  -18.5190  -12.6360 C   0  0  0  0  0  0  0  0  0  0  0  0
   23.1300  -18.6000  -13.7260 N   0  0  0  0  0  0  0  0  0  0  0  0
   22.1250  -19.5730  -13.7490 C   0  0  0  0  0  0  0  0  0  0  0  0
   21.9910  -20.4600  -12.6840 C   0  0  0  0  0  0  0  0  0  0  0  0
   22.8510  -20.3820  -11.5940 C   0  0  0  0  0  0  0  0  0  0  0  0
   24.9120  -17.6900  -12.6240 O   0  0  0  0  0  0  0  0  0  0  0  0
   21.3080  -19.6500  -14.7980 N   0  0  0  0  0  0  0  0  0  0  0  0
   24.7430  -19.2700  -10.3870 C   0  0  1  0  0  0  0  0  0  0  0  0
   24.0240  -18.8500   -9.1050 C   0  0  0  0  0  0  0  0  0  0  0  0
   25.2240  -18.9720   -8.1660 C   0  0  0  0  0  0  0  0  0  0  0  0
   25.8510  -20.2900   -8.6320 C   0  0  2  0  0  0  0  0  0  0  0  0
   25.3630  -20.5090  -10.0080 O   0  0  0  0  0  0  0  0  0  0  0  0
   25.3690  -21.4540   -7.7630 C   0  0  0  0  0  0  0  0  0  0  0  0
   24.5110  -22.3120   -8.5150 O   0  0  0  0  0  0  0  0  0  0  0  0
   24.6910  -23.8830   -8.3960 P   0  0  0  0  0  0  0  0  0  0  0  0
   26.0750  -24.2210   -8.8570 O   0  0  0  0  0  0  0  0  0  0  0  0
   24.2990  -24.3170   -7.0360 O   0  0  0  0  0  0  0  0  0  0  0  0
  1  2  1  0  0  0  0
  1  6  1  0  0  0  0
  2  7  2  0  0  0  0
  2  3  1  0  0  0  0
  3  4  2  0  0  0  0
  4  8  1  0  0  0  0
  4  5  1  0  0  0  0
  5  6  2  0  0  0  0
  9  1  1  6  0  0  0
  9 13  1  0  0  0  0
  9 10  1  0  0  0  0
 10 11  1  0  0  0  0
 11 12  1  0  0  0  0
 12 13  1  0  0  0  0
 12 14  1  1  0  0  0
 14 15  1  0  0  0  0
 15 16  1  0  0  0  0
 16 17  2  0  0  0  0
 16 18  2  0  0  0  0
M  END
>  <COMPND>
    UNNAMED

>  <AUTHOR>
    GENERATED BY OPEN BABEL 2.4.90

>  <MASTER>
        0    0    0    0    0    0    0    0   18    0   18    0

