__3khh_A_rec_2xca_doc_lig_min.pdb
 OpenBabel10191900083D

 18 19  0  0  1  0  0  0  0  0999 V2000
   23.8520  -20.0860  -10.4540 N   0  0  0  0  0  0  0  0  0  0  0  0
   25.0080  -20.8680  -10.5790 C   0  0  0  0  0  0  0  0  0  0  0  0
   25.1750  -21.6790  -11.7070 N   0  0  0  0  0  0  0  0  0  0  0  0
   24.1880  -21.7150  -12.6970 C   0  0  0  0  0  0  0  0  0  0  0  0
   23.0380  -20.9410  -12.5630 C   0  0  0  0  0  0  0  0  0  0  0  0
   22.8680  -20.1280  -11.4480 C   0  0  0  0  0  0  0  0  0  0  0  0
   25.8550  -20.8570   -9.6870 O   0  0  0  0  0  0  0  0  0  0  0  0
   24.3520  -22.5010  -13.7600 N   0  0  0  0  0  0  0  0  0  0  0  0
   23.7190  -19.1810   -9.2910 C   0  0  1  0  0  0  0  0  0  0  0  0
   22.6920  -19.6370   -8.2530 C   0  0  0  0  0  0  0  0  0  0  0  0
   22.9800  -18.5530   -7.2140 C   0  0  0  0  0  0  0  0  0  0  0  0
   24.5120  -18.5110   -7.2240 C   0  0  2  0  0  0  0  0  0  0  0  0
   24.9260  -19.0880   -8.5180 O   0  0  0  0  0  0  0  0  0  0  0  0
   25.0830  -19.3840   -6.1060 C   0  0  0  0  0  0  0  0  0  0  0  0
   24.9250  -20.7670   -6.4270 O   0  0  0  0  0  0  0  0  0  0  0  0
   26.1650  -21.7430   -6.2750 P   0  0  0  0  0  0  0  0  0  0  0  0
   26.7180  -21.5690   -4.8940 O   0  0  0  0  0  0  0  0  0  0  0  0
   25.7630  -23.1080   -6.6830 O   0  0  0  0  0  0  0  0  0  0  0  0
  1  2  1  0  0  0  0
  1  6  1  0  0  0  0
  2  7  2  0  0  0  0
  2  3  1  0  0  0  0
  3  4  2  0  0  0  0
  4  8  1  0  0  0  0
  4  5  1  0  0  0  0
  5  6  2  0  0  0  0
  9  1  1  6  0  0  0
  9 13  1  0  0  0  0
  9 10  1  0  0  0  0
 10 11  1  0  0  0  0
 11 12  1  0  0  0  0
 12 13  1  0  0  0  0
 12 14  1  1  0  0  0
 14 15  1  0  0  0  0
 15 16  1  0  0  0  0
 16 17  2  0  0  0  0
 16 18  2  0  0  0  0
M  END
>  <COMPND>
    UNNAMED

>  <AUTHOR>
    GENERATED BY OPEN BABEL 2.4.90

>  <MASTER>
        0    0    0    0    0    0    0    0   18    0   18    0

