__3khl_A_rec_4tqr_ttp_lig_docked.pdb
 OpenBabel10191914043D

 29 30  0  0  1  0  0  0  0  0999 V2000
   22.7880  -10.8470   -8.4010 O   0  0  0  0  0  0  0  0  0  0  0  0
   23.0730  -11.9710   -7.4400 P   0  0  2  0  0  0  0  0  0  0  0  0
   24.5300  -11.9740   -7.2060 O   0  0  0  0  0  0  0  0  0  0  0  0
   22.6430  -13.2290   -7.9980 O   0  0  0  0  0  0  0  0  0  0  0  0
   22.3950  -11.6190   -6.1470 O   0  0  0  0  0  0  0  0  0  0  0  0
   22.3830  -10.2480   -5.4670 P   0  0  2  0  0  0  0  0  0  0  0  0
   21.0440   -9.7270   -5.3990 O   0  0  0  0  0  0  0  0  0  0  0  0
   23.2580   -9.4080   -6.1780 O   0  0  0  0  0  0  0  0  0  0  0  0
   22.9680  -10.5170   -4.0130 O   0  0  0  0  0  0  0  0  0  0  0  0
   24.4200  -10.7480   -3.5240 P   0  0  0  0  0  0  0  0  0  0  0  0
   24.5020  -11.9290   -2.7610 O   0  0  0  0  0  0  0  0  0  0  0  0
   24.9080   -9.6270   -2.7730 O   0  0  0  0  0  0  0  0  0  0  0  0
   25.2520  -10.8390   -4.6630 O   0  0  0  0  0  0  0  0  0  0  0  0
   21.8810  -11.0960   -9.4370 C   0  0  0  0  0  0  0  0  0  0  0  0
   20.9150   -9.8590   -9.6600 C   0  0  1  0  0  0  0  0  0  0  0  0
   19.6980  -10.4200  -10.4250 O   0  0  0  0  0  0  0  0  0  0  0  0
   20.4060   -9.3310   -8.6010 C   0  0  1  0  0  0  0  0  0  0  0  0
   19.9230   -7.9640   -8.7480 O   0  0  0  0  0  0  0  0  0  0  0  0
   19.1750  -10.3460   -8.2800 C   0  0  0  0  0  0  0  0  0  0  0  0
   18.5750  -10.4770   -9.4250 C   0  0  2  0  0  0  0  0  0  0  0  0
   18.0050  -11.7550   -9.6270 N   0  0  0  0  0  0  0  0  0  0  0  0
   16.8160  -11.7620  -10.3500 C   0  0  0  0  0  0  0  0  0  0  0  0
   16.2470  -10.7440  -10.7460 O   0  0  0  0  0  0  0  0  0  0  0  0
   16.1680  -12.9370  -10.6750 N   0  0  0  0  0  0  0  0  0  0  0  0
   16.6770  -14.1230  -10.3040 C   0  0  0  0  0  0  0  0  0  0  0  0
   16.0520  -15.0690  -10.6240 O   0  0  0  0  0  0  0  0  0  0  0  0
   17.9400  -14.1880   -9.5740 C   0  0  0  0  0  0  0  0  0  0  0  0
   18.4280  -15.5690   -9.2060 C   0  0  0  0  0  0  0  0  0  0  0  0
   18.6350  -12.9660   -9.2350 C   0  0  0  0  0  0  0  0  0  0  0  0
  1  2  1  0  0  0  0
  1 14  1  0  0  0  0
  2  3  2  1  0  0  0
  2  5  1  0  0  0  0
  2  4  1  0  0  0  0
  5  6  1  0  0  0  0
  6  7  2  1  0  0  0
  6  8  1  0  0  0  0
  6  9  1  0  0  0  0
  9 10  1  0  0  0  0
 10 11  2  0  0  0  0
 10 13  1  0  0  0  0
 10 12  1  0  0  0  0
 15 14  1  1  0  0  0
 15 17  1  0  0  0  0
 15 16  1  0  0  0  0
 16 20  1  0  0  0  0
 17 19  1  0  0  0  0
 17 18  1  6  0  0  0
 20 19  1  1  0  0  0
 20 21  1  0  0  0  0
 21 22  1  0  0  0  0
 21 29  1  0  0  0  0
 22 24  1  0  0  0  0
 22 23  2  0  0  0  0
 24 25  1  0  0  0  0
 25 26  2  0  0  0  0
 25 27  1  0  0  0  0
 27 28  1  0  0  0  0
 27 29  2  0  0  0  0
M  END
>  <MODEL>
       3

>  <COMPND>
    UNNAMED

>  <AUTHOR>
    GENERATED BY OPEN BABEL 2.4.90

>  <MASTER>
        0    0    0    0    0    0    0    0   29    0   29    0

