__3pvx_A_rec_3khh_doc_lig_min.pdb
 OpenBabel10191905043D

 18 19  0  0  1  0  0  0  0  0999 V2000
   25.1740  -19.6720  -10.7970 N   0  0  0  0  0  0  0  0  0  0  0  0
   25.7060  -18.4420  -10.3830 C   0  0  0  0  0  0  0  0  0  0  0  0
   25.8330  -17.4270  -11.2870 N   0  0  0  0  0  0  0  0  0  0  0  0
   25.4530  -17.6030  -12.5560 C   0  0  0  0  0  0  0  0  0  0  0  0
   24.9020  -18.8490  -13.0020 C   0  0  0  0  0  0  0  0  0  0  0  0
   24.7780  -19.8460  -12.1030 C   0  0  0  0  0  0  0  0  0  0  0  0
   26.0440  -18.3300   -9.1980 O   0  0  0  0  0  0  0  0  0  0  0  0
   25.6060  -16.5730  -13.3980 N   0  0  0  0  0  0  0  0  0  0  0  0
   25.0470  -20.7540   -9.7530 C   0  0  1  0  0  0  0  0  0  0  0  0
   23.7120  -20.8250   -9.0200 C   0  0  0  0  0  0  0  0  0  0  0  0
   23.8110  -22.2280   -8.4390 C   0  0  0  0  0  0  0  0  0  0  0  0
   24.6030  -23.0020   -9.4840 C   0  0  2  0  0  0  0  0  0  0  0  0
   25.2080  -22.0140  -10.3560 O   0  0  0  0  0  0  0  0  0  0  0  0
   23.8070  -23.9890  -10.3250 C   0  0  0  0  0  0  0  0  0  0  0  0
   23.6640  -23.6130  -11.7160 O   0  0  0  0  0  0  0  0  0  0  0  0
   23.0760  -24.7040  -12.7390 P   0  0  0  0  0  0  0  0  0  0  0  0
   24.0050  -24.8080  -13.8920 O   0  0  0  0  0  0  0  0  0  0  0  0
   22.7040  -25.9290  -12.0010 O   0  0  0  0  0  0  0  0  0  0  0  0
  1  2  1  0  0  0  0
  1  6  1  0  0  0  0
  2  7  2  0  0  0  0
  2  3  1  0  0  0  0
  3  4  2  0  0  0  0
  4  8  1  0  0  0  0
  4  5  1  0  0  0  0
  5  6  2  0  0  0  0
  9  1  1  6  0  0  0
  9 13  1  0  0  0  0
  9 10  1  0  0  0  0
 10 11  1  0  0  0  0
 11 12  1  0  0  0  0
 12 13  1  0  0  0  0
 12 14  1  6  0  0  0
 14 15  1  0  0  0  0
 15 16  1  0  0  0  0
 16 17  2  0  0  0  0
 16 18  2  0  0  0  0
M  END
>  <COMPND>
    UNNAMED

>  <AUTHOR>
    GENERATED BY OPEN BABEL 2.4.90

>  <MASTER>
        0    0    0    0    0    0    0    0   18    0   18    0

