__3pw2_A_rec_2xca_doc_lig_min.pdb
 OpenBabel10181923293D

 18 19  0  0  1  0  0  0  0  0999 V2000
   27.0280  -20.6460  -13.5610 N   0  0  0  0  0  0  0  0  0  0  0  0
   27.2500  -19.5970  -14.4620 C   0  0  0  0  0  0  0  0  0  0  0  0
   28.0410  -19.8140  -15.5950 N   0  0  0  0  0  0  0  0  0  0  0  0
   28.6160  -21.0700  -15.8200 C   0  0  0  0  0  0  0  0  0  0  0  0
   28.3970  -22.1060  -14.9160 C   0  0  0  0  0  0  0  0  0  0  0  0
   27.6060  -21.9000  -13.7910 C   0  0  0  0  0  0  0  0  0  0  0  0
   26.7710  -18.4860  -14.2390 O   0  0  0  0  0  0  0  0  0  0  0  0
   29.3780  -21.2610  -16.8950 N   0  0  0  0  0  0  0  0  0  0  0  0
   26.1340  -20.4240  -12.4040 C   0  0  1  0  0  0  0  0  0  0  0  0
   25.3280  -21.6530  -11.9840 C   0  0  0  0  0  0  0  0  0  0  0  0
   24.6970  -21.0480  -10.7310 C   0  0  0  0  0  0  0  0  0  0  0  0
   25.8880  -20.3140  -10.1060 C   0  0  2  0  0  0  0  0  0  0  0  0
   26.8520  -20.0950  -11.2030 O   0  0  0  0  0  0  0  0  0  0  0  0
   26.5620  -21.1840   -9.0430 C   0  0  0  0  0  0  0  0  0  0  0  0
   25.6180  -21.5580   -8.0380 O   0  0  0  0  0  0  0  0  0  0  0  0
   25.4870  -23.0840   -7.6310 P   0  0  0  0  0  0  0  0  0  0  0  0
   25.8650  -23.9110   -8.8210 O   0  0  0  0  0  0  0  0  0  0  0  0
   26.2330  -23.3180   -6.3730 O   0  0  0  0  0  0  0  0  0  0  0  0
  1  2  1  0  0  0  0
  1  6  1  0  0  0  0
  2  7  2  0  0  0  0
  2  3  1  0  0  0  0
  3  4  2  0  0  0  0
  4  8  1  0  0  0  0
  4  5  1  0  0  0  0
  5  6  2  0  0  0  0
  9  1  1  6  0  0  0
  9 13  1  0  0  0  0
  9 10  1  0  0  0  0
 10 11  1  0  0  0  0
 11 12  1  0  0  0  0
 12 13  1  0  0  0  0
 12 14  1  1  0  0  0
 14 15  1  0  0  0  0
 15 16  1  0  0  0  0
 16 17  2  0  0  0  0
 16 18  2  0  0  0  0
M  END
>  <COMPND>
    UNNAMED

>  <AUTHOR>
    GENERATED BY OPEN BABEL 2.4.90

>  <MASTER>
        0    0    0    0    0    0    0    0   18    0   18    0

