__3rax_A_rec_4gc6_0oh_lig_docked.pdb
 OpenBabel10191911263D

 23 26  0  0  1  0  0  0  0  0999 V2000
   20.8610   -9.6110   -8.8520 C   0  0  1  0  0  0  0  0  0  0  0  0
   20.2900  -10.0050  -10.2060 C   0  0  2  0  0  0  0  0  0  0  0  0
   21.1630   -8.7720  -10.0660 C   0  0  0  0  0  0  0  0  0  0  0  0
   19.6840   -9.2660   -7.9860 C   0  0  1  0  0  0  0  0  0  0  0  0
   19.9570   -8.1340   -7.2910 O   0  0  0  0  0  0  0  0  0  0  0  0
   18.5380   -9.0870   -8.9160 C   0  0  0  0  0  0  0  0  0  0  0  0
   18.7830   -9.9980  -10.0530 C   0  0  2  0  0  0  0  0  0  0  0  0
   18.2600  -11.3520   -9.8320 N   0  0  0  0  0  0  0  0  0  0  0  0
   18.9790  -12.3840   -9.3520 C   0  0  0  0  0  0  0  0  0  0  0  0
   18.1890  -13.4660   -9.2700 N   0  0  0  0  0  0  0  0  0  0  0  0
   16.9340  -13.1590   -9.7000 C   0  0  0  0  0  0  0  0  0  0  0  0
   16.9860  -11.8050  -10.0590 C   0  0  0  0  0  0  0  0  0  0  0  0
   15.8670  -11.2010  -10.5260 N   0  0  0  0  0  0  0  0  0  0  0  0
   14.7180  -11.8900  -10.6450 C   0  0  0  0  0  0  0  0  0  0  0  0
   14.6410  -13.1910  -10.3070 N   0  0  0  0  0  0  0  0  0  0  0  0
   15.7080  -13.8500   -9.8360 C   0  0  0  0  0  0  0  0  0  0  0  0
   15.5830  -15.2440   -9.4820 N   0  0  0  0  0  0  0  0  0  0  0  0
   21.9430  -10.5320   -8.3460 C   0  0  0  0  0  0  0  0  0  0  0  0
   21.7910  -11.0800   -7.0730 O   0  0  0  0  0  0  0  0  0  0  0  0
   23.0350   -8.9330   -6.3210 O   0  0  0  0  0  0  0  0  0  0  0  0
   22.3670  -10.2810   -5.8650 P   0  0  0  0  0  0  0  0  0  0  0  0
   21.1650   -9.9940   -4.9840 O   0  0  0  0  0  0  0  0  0  0  0  0
   23.4530  -11.1190   -5.2390 O   0  0  0  0  0  0  0  0  0  0  0  0
  1  3  1  0  0  0  0
  1  2  1  0  0  0  0
  1  4  1  0  0  0  0
  1 18  1  1  0  0  0
  2  7  1  0  0  0  0
  2  3  1  6  0  0  0
  4  6  1  0  0  0  0
  4  5  1  6  0  0  0
  7  6  1  1  0  0  0
  7  8  1  0  0  0  0
  8 12  1  0  0  0  0
  8  9  1  0  0  0  0
  9 10  2  0  0  0  0
 10 11  1  0  0  0  0
 11 12  2  0  0  0  0
 11 16  1  0  0  0  0
 12 13  1  0  0  0  0
 13 14  2  0  0  0  0
 14 15  1  0  0  0  0
 15 16  2  0  0  0  0
 16 17  1  0  0  0  0
 18 19  1  0  0  0  0
 19 21  1  0  0  0  0
 20 21  2  0  0  0  0
 21 22  1  0  0  0  0
 21 23  1  0  0  0  0
M  END
>  <MODEL>
       1

>  <COMPND>
    UNNAMED

>  <AUTHOR>
    GENERATED BY OPEN BABEL 2.4.90

>  <MASTER>
        0    0    0    0    0    0    0    0   23    0   23    0

