__3rb3_A_rec_2ia6_bap_lig_min.pdb
 OpenBabel10181923203D

 23 27  0  0  1  0  0  0  0  0999 V2000
   14.9030  -15.9940   -9.1950 C   0  0  0  0  0  0  0  0  0  0  0  0
   15.4440  -14.6690   -9.2600 C   0  0  0  0  0  0  0  0  0  0  0  0
   14.6390  -13.5920   -9.7280 C   0  0  0  0  0  0  0  0  0  0  0  0
   13.2910  -13.8120  -10.1370 C   0  0  0  0  0  0  0  0  0  0  0  0
   12.5030  -12.7330  -10.6110 C   0  0  0  0  0  0  0  0  0  0  0  0
   11.1630  -12.9520  -11.0170 C   0  0  0  0  0  0  0  0  0  0  0  0
   10.5690  -14.2440  -10.9700 C   0  0  0  0  0  0  0  0  0  0  0  0
    9.2030  -14.4610  -11.3680 C   0  0  0  0  0  0  0  0  0  0  0  0
    8.6400  -15.8330  -11.2710 C   0  0  0  0  0  0  0  0  0  0  0  0
    9.4920  -16.9200  -10.8380 C   0  0  0  0  0  0  0  0  0  0  0  0
   10.8320  -16.6970  -10.4380 C   0  0  0  0  0  0  0  0  0  0  0  0
   11.6420  -17.7720   -9.9630 C   0  0  0  0  0  0  0  0  0  0  0  0
   12.9910  -17.5340   -9.5460 C   0  0  0  0  0  0  0  0  0  0  0  0
   13.5500  -16.2300   -9.5970 C   0  0  0  0  0  0  0  0  0  0  0  0
   12.7400  -15.1370  -10.0820 C   0  0  0  0  0  0  0  0  0  0  0  0
   11.3690  -15.3620  -10.4850 C   0  0  0  0  0  0  0  0  0  0  0  0
    7.2640  -16.2230  -11.7330 C   0  0  1  0  0  0  0  0  0  0  0  0
    6.5740  -16.9980  -10.7440 O   0  0  0  0  0  0  0  0  0  0  0  0
    6.3960  -14.9890  -12.1750 C   0  0  2  0  0  0  0  0  0  0  0  0
    5.3460  -15.3710  -13.0940 O   0  0  0  0  0  0  0  0  0  0  0  0
    7.1820  -13.7600  -12.7900 C   0  0  2  0  0  0  0  0  0  0  0  0
    7.6880  -14.1270  -14.0610 O   0  0  0  0  0  0  0  0  0  0  0  0
    8.3900  -13.2690  -11.9160 C   0  0  0  0  0  0  0  0  0  0  0  0
  1  2  2  0  0  0  0
  1 14  1  0  0  0  0
  2  3  1  0  0  0  0
  3  4  2  0  0  0  0
  4  5  1  0  0  0  0
  4 15  1  0  0  0  0
  5  6  2  0  0  0  0
  6  7  1  0  0  0  0
  7 16  2  0  0  0  0
  7  8  1  0  0  0  0
  8 23  1  0  0  0  0
  8  9  2  0  0  0  0
  9 10  1  0  0  0  0
  9 17  1  0  0  0  0
 10 11  2  0  0  0  0
 11 16  1  0  0  0  0
 11 12  1  0  0  0  0
 12 13  2  0  0  0  0
 13 14  1  0  0  0  0
 14 15  2  0  0  0  0
 15 16  1  0  0  0  0
 17 19  1  0  0  0  0
 17 18  1  1  0  0  0
 19 21  1  0  0  0  0
 19 20  1  6  0  0  0
 21 22  1  6  0  0  0
 21 23  1  0  0  0  0
M  END
>  <COMPND>
    UNNAMED

>  <AUTHOR>
    GENERATED BY OPEN BABEL 2.4.90

>  <MASTER>
        0    0    0    0    0    0    0    0   23    0   23    0

