__3rb6_A_rec_4gc6_0oh_lig_docked.pdb
 OpenBabel10231911273D

 23 26  0  0  1  0  0  0  0  0999 V2000
   20.8120   -9.8260   -8.8450 C   0  0  1  0  0  0  0  0  0  0  0  0
   20.2240  -10.2890  -10.1680 C   0  0  2  0  0  0  0  0  0  0  0  0
   21.0960   -9.0490  -10.1030 C   0  0  0  0  0  0  0  0  0  0  0  0
   19.6470   -9.4400   -7.9800 C   0  0  1  0  0  0  0  0  0  0  0  0
   19.9260   -8.2740   -7.3470 O   0  0  0  0  0  0  0  0  0  0  0  0
   18.4880   -9.3100   -8.9020 C   0  0  0  0  0  0  0  0  0  0  0  0
   18.7190  -10.2770   -9.9950 C   0  0  2  0  0  0  0  0  0  0  0  0
   18.2030  -11.6190   -9.6990 N   0  0  0  0  0  0  0  0  0  0  0  0
   18.9210  -12.6120   -9.1420 C   0  0  0  0  0  0  0  0  0  0  0  0
   18.1380  -13.6940   -9.0070 N   0  0  0  0  0  0  0  0  0  0  0  0
   16.8890  -13.4270   -9.4770 C   0  0  0  0  0  0  0  0  0  0  0  0
   16.9370  -12.0970   -9.9200 C   0  0  0  0  0  0  0  0  0  0  0  0
   15.8220  -11.5330  -10.4440 N   0  0  0  0  0  0  0  0  0  0  0  0
   14.6810  -12.2390  -10.5410 C   0  0  0  0  0  0  0  0  0  0  0  0
   14.6080  -13.5170  -10.1230 N   0  0  0  0  0  0  0  0  0  0  0  0
   15.6710  -14.1350   -9.5930 C   0  0  0  0  0  0  0  0  0  0  0  0
   15.5500  -15.5050   -9.1540 N   0  0  0  0  0  0  0  0  0  0  0  0
   21.9040  -10.7190   -8.3070 C   0  0  0  0  0  0  0  0  0  0  0  0
   21.7780  -11.1900   -7.0010 O   0  0  0  0  0  0  0  0  0  0  0  0
   23.0090   -8.9880   -6.4010 O   0  0  0  0  0  0  0  0  0  0  0  0
   22.3620  -10.3110   -5.8540 P   0  0  0  0  0  0  0  0  0  0  0  0
   21.1690   -9.9810   -4.9750 O   0  0  0  0  0  0  0  0  0  0  0  0
   23.4640  -11.0980   -5.1910 O   0  0  0  0  0  0  0  0  0  0  0  0
  1  3  1  0  0  0  0
  1  2  1  0  0  0  0
  1  4  1  0  0  0  0
  1 18  1  1  0  0  0
  2  7  1  0  0  0  0
  2  3  1  6  0  0  0
  4  6  1  0  0  0  0
  4  5  1  6  0  0  0
  7  6  1  1  0  0  0
  7  8  1  0  0  0  0
  8 12  1  0  0  0  0
  8  9  1  0  0  0  0
  9 10  2  0  0  0  0
 10 11  1  0  0  0  0
 11 12  2  0  0  0  0
 11 16  1  0  0  0  0
 12 13  1  0  0  0  0
 13 14  2  0  0  0  0
 14 15  1  0  0  0  0
 15 16  2  0  0  0  0
 16 17  1  0  0  0  0
 18 19  1  0  0  0  0
 19 21  1  0  0  0  0
 20 21  2  0  0  0  0
 21 22  1  0  0  0  0
 21 23  1  0  0  0  0
M  END
>  <MODEL>
       1

>  <COMPND>
    UNNAMED

>  <AUTHOR>
    GENERATED BY OPEN BABEL 2.4.90

>  <MASTER>
        0    0    0    0    0    0    0    0   23    0   23    0

