__3rbe_A_rec_4gc6_0oh_lig_docked.pdb
 OpenBabel10191915563D

 23 26  0  0  1  0  0  0  0  0999 V2000
   20.9150   -9.6290   -8.8040 C   0  0  1  0  0  0  0  0  0  0  0  0
   20.4640  -10.1820  -10.1470 C   0  0  2  0  0  0  0  0  0  0  0  0
   21.2800   -8.9050  -10.0740 C   0  0  0  0  0  0  0  0  0  0  0  0
   19.6640   -9.2470   -8.0670 C   0  0  1  0  0  0  0  0  0  0  0  0
   19.8430   -8.0390   -7.4760 O   0  0  0  0  0  0  0  0  0  0  0  0
   18.5880   -9.2130   -9.0910 C   0  0  0  0  0  0  0  0  0  0  0  0
   18.9510  -10.2230  -10.1050 C   0  0  2  0  0  0  0  0  0  0  0  0
   18.4600  -11.5690   -9.7830 N   0  0  0  0  0  0  0  0  0  0  0  0
   19.2090  -12.5530   -9.2510 C   0  0  0  0  0  0  0  0  0  0  0  0
   18.4430  -13.6410   -9.0790 N   0  0  0  0  0  0  0  0  0  0  0  0
   17.1730  -13.3880   -9.4990 C   0  0  0  0  0  0  0  0  0  0  0  0
   17.1900  -12.0590   -9.9500 C   0  0  0  0  0  0  0  0  0  0  0  0
   16.0500  -11.5090  -10.4310 N   0  0  0  0  0  0  0  0  0  0  0  0
   14.9130  -12.2260  -10.4780 C   0  0  0  0  0  0  0  0  0  0  0  0
   14.8690  -13.5030  -10.0520 N   0  0  0  0  0  0  0  0  0  0  0  0
   15.9580  -14.1080   -9.5620 C   0  0  0  0  0  0  0  0  0  0  0  0
   15.8690  -15.4770   -9.1120 N   0  0  0  0  0  0  0  0  0  0  0  0
   21.9860  -10.4460   -8.1260 C   0  0  0  0  0  0  0  0  0  0  0  0
   22.6800   -9.8640   -7.0670 O   0  0  0  0  0  0  0  0  0  0  0  0
   21.0340   -9.4650   -5.1030 O   0  0  0  0  0  0  0  0  0  0  0  0
   22.2760  -10.2780   -5.6200 P   0  0  0  0  0  0  0  0  0  0  0  0
   21.9260  -11.7510   -5.7240 O   0  0  0  0  0  0  0  0  0  0  0  0
   23.4300   -9.9430   -4.7090 O   0  0  0  0  0  0  0  0  0  0  0  0
  1  3  1  0  0  0  0
  1  2  1  0  0  0  0
  1  4  1  0  0  0  0
  1 18  1  1  0  0  0
  2  7  1  0  0  0  0
  2  3  1  6  0  0  0
  4  6  1  0  0  0  0
  4  5  1  6  0  0  0
  7  6  1  1  0  0  0
  7  8  1  0  0  0  0
  8 12  1  0  0  0  0
  8  9  1  0  0  0  0
  9 10  2  0  0  0  0
 10 11  1  0  0  0  0
 11 12  2  0  0  0  0
 11 16  1  0  0  0  0
 12 13  1  0  0  0  0
 13 14  2  0  0  0  0
 14 15  1  0  0  0  0
 15 16  2  0  0  0  0
 16 17  1  0  0  0  0
 18 19  1  0  0  0  0
 19 21  1  0  0  0  0
 20 21  2  0  0  0  0
 21 22  1  0  0  0  0
 21 23  1  0  0  0  0
M  END
>  <MODEL>
       4

>  <COMPND>
    UNNAMED

>  <AUTHOR>
    GENERATED BY OPEN BABEL 2.4.90

>  <MASTER>
        0    0    0    0    0    0    0    0   23    0   23    0

