__3rbe_A_rec_3rax_dgt_lig_docked.pdb
 OpenBabel10191915583D

 31 33  0  0  1  0  0  0  0  0999 V2000
   19.9140   -9.9240  -10.2230 C   0  0  1  0  0  0  0  0  0  0  0  0
   19.0620  -10.7420  -11.0380 O   0  0  0  0  0  0  0  0  0  0  0  0
   19.2100   -9.7720   -8.8810 C   0  0  1  0  0  0  0  0  0  0  0  0
   19.6590   -8.6100   -8.1740 O   0  0  0  0  0  0  0  0  0  0  0  0
   17.7660   -9.7380   -9.3560 C   0  0  0  0  0  0  0  0  0  0  0  0
   17.7270  -10.7060  -10.5430 C   0  0  2  0  0  0  0  0  0  0  0  0
   17.2590  -11.9880  -10.0070 N   0  0  0  0  0  0  0  0  0  0  0  0
   17.9410  -12.9330   -9.2710 C   0  0  0  0  0  0  0  0  0  0  0  0
   17.2020  -13.9530   -8.8960 N   0  0  0  0  0  0  0  0  0  0  0  0
   15.9490  -13.6540   -9.4100 C   0  0  0  0  0  0  0  0  0  0  0  0
   14.7270  -14.3670   -9.3480 C   0  0  0  0  0  0  0  0  0  0  0  0
   14.5150  -15.4470   -8.7860 O   0  0  0  0  0  0  0  0  0  0  0  0
   13.6870  -13.7040  -10.0260 N   0  0  0  0  0  0  0  0  0  0  0  0
   13.7840  -12.4850  -10.6670 C   0  0  0  0  0  0  0  0  0  0  0  0
   12.7020  -11.9690  -11.2740 N   0  0  0  0  0  0  0  0  0  0  0  0
   14.9560  -11.8390  -10.7280 N   0  0  0  0  0  0  0  0  0  0  0  0
   15.9700  -12.4650  -10.0900 C   0  0  0  0  0  0  0  0  0  0  0  0
   21.2880  -10.5680  -10.1260 C   0  0  0  0  0  0  0  0  0  0  0  0
   21.6650  -10.7040   -8.7630 O   0  0  0  0  0  0  0  0  0  0  0  0
   22.2820  -12.0760   -8.1920 P   0  0  1  0  0  0  0  0  0  0  0  0
   21.0580  -12.9280   -8.0040 O   0  0  0  0  0  0  0  0  0  0  0  0
   23.2760  -12.6760   -9.1730 O   0  0  0  0  0  0  0  0  0  0  0  0
   22.7990  -11.7850   -6.7030 O   0  0  0  0  0  0  0  0  0  0  0  0
   22.2200  -10.6870   -5.6800 P   0  0  1  0  0  0  0  0  0  0  0  0
   22.8020   -9.3100   -5.8700 O   0  0  0  0  0  0  0  0  0  0  0  0
   20.7090  -10.6680   -5.9170 O   0  0  0  0  0  0  0  0  0  0  0  0
   22.4220  -11.3350   -4.2210 O   0  0  0  0  0  0  0  0  0  0  0  0
   23.9510  -11.3220   -3.7160 P   0  0  0  0  0  0  0  0  0  0  0  0
   24.2820  -12.0920   -2.4770 O   0  0  0  0  0  0  0  0  0  0  0  0
   24.9660  -10.6330   -4.5830 O   0  0  0  0  0  0  0  0  0  0  0  0
   23.7290  -10.0740   -2.9330 O   0  0  0  0  0  0  0  0  0  0  0  0
  1  2  1  0  0  0  0
  1 18  1  1  0  0  0
  1  3  1  0  0  0  0
  2  6  1  0  0  0  0
  3  5  1  0  0  0  0
  3  4  1  6  0  0  0
  6  5  1  1  0  0  0
  6  7  1  0  0  0  0
  7 17  1  0  0  0  0
  7  8  1  0  0  0  0
  8  9  2  0  0  0  0
  9 10  1  0  0  0  0
 10 17  2  0  0  0  0
 10 11  1  0  0  0  0
 11 13  1  0  0  0  0
 11 12  2  0  0  0  0
 13 14  2  0  0  0  0
 14 15  1  0  0  0  0
 14 16  1  0  0  0  0
 16 17  1  0  0  0  0
 18 19  1  0  0  0  0
 19 20  1  0  0  0  0
 20 22  2  6  0  0  0
 20 21  1  0  0  0  0
 20 23  1  0  0  0  0
 23 24  1  0  0  0  0
 24 25  2  6  0  0  0
 24 26  1  0  0  0  0
 24 27  1  0  0  0  0
 27 28  1  0  0  0  0
 28 29  2  0  0  0  0
 28 31  1  0  0  0  0
 28 30  1  0  0  0  0
M  END
>  <MODEL>
      10

>  <COMPND>
    UNNAMED

>  <AUTHOR>
    GENERATED BY OPEN BABEL 2.4.90

>  <MASTER>
        0    0    0    0    0    0    0    0   31    0   31    0

