__3t5k_A_rec_3khh_doc_lig_min.pdb
 OpenBabel10191901013D

 18 19  0  0  1  0  0  0  0  0999 V2000
   26.0450  -18.2460  -12.8760 N   0  0  0  0  0  0  0  0  0  0  0  0
   27.0970  -17.4850  -13.4030 C   0  0  0  0  0  0  0  0  0  0  0  0
   26.8610  -16.6530  -14.4590 N   0  0  0  0  0  0  0  0  0  0  0  0
   25.6370  -16.5620  -14.9850 C   0  0  0  0  0  0  0  0  0  0  0  0
   24.5430  -17.3260  -14.4610 C   0  0  0  0  0  0  0  0  0  0  0  0
   24.7830  -18.1450  -13.4170 C   0  0  0  0  0  0  0  0  0  0  0  0
   28.2130  -17.6040  -12.8800 O   0  0  0  0  0  0  0  0  0  0  0  0
   25.4670  -15.7330  -16.0230 N   0  0  0  0  0  0  0  0  0  0  0  0
   26.3610  -19.1400  -11.7020 C   0  0  1  0  0  0  0  0  0  0  0  0
   25.5960  -18.8530  -10.4150 C   0  0  0  0  0  0  0  0  0  0  0  0
   25.8320  -20.1620   -9.6770 C   0  0  0  0  0  0  0  0  0  0  0  0
   25.8850  -21.2040  -10.7870 C   0  0  2  0  0  0  0  0  0  0  0  0
   26.0540  -20.4740  -12.0270 O   0  0  0  0  0  0  0  0  0  0  0  0
   24.6710  -22.1130  -10.9040 C   0  0  0  0  0  0  0  0  0  0  0  0
   23.9570  -22.3230   -9.6610 O   0  0  0  0  0  0  0  0  0  0  0  0
   24.0750  -23.7610   -8.9530 P   0  0  0  0  0  0  0  0  0  0  0  0
   25.5060  -24.0140   -8.6520 O   0  0  0  0  0  0  0  0  0  0  0  0
   23.0820  -23.8610   -7.8630 O   0  0  0  0  0  0  0  0  0  0  0  0
  1  2  1  0  0  0  0
  1  6  1  0  0  0  0
  2  7  2  0  0  0  0
  2  3  1  0  0  0  0
  3  4  2  0  0  0  0
  4  8  1  0  0  0  0
  4  5  1  0  0  0  0
  5  6  2  0  0  0  0
  9  1  1  6  0  0  0
  9 13  1  0  0  0  0
  9 10  1  0  0  0  0
 10 11  1  0  0  0  0
 11 12  1  0  0  0  0
 12 13  1  0  0  0  0
 12 14  1  6  0  0  0
 14 15  1  0  0  0  0
 15 16  1  0  0  0  0
 16 17  2  0  0  0  0
 16 18  2  0  0  0  0
M  END
>  <COMPND>
    UNNAMED

>  <AUTHOR>
    GENERATED BY OPEN BABEL 2.4.90

>  <MASTER>
        0    0    0    0    0    0    0    0   18    0   18    0

