__3t5k_A_rec_4gc6_0oh_lig_docked.pdb
 OpenBabel10191910233D

 23 26  0  0  1  0  0  0  0  0999 V2000
   21.2610   -9.7560   -8.7230 C   0  0  1  0  0  0  0  0  0  0  0  0
   20.6720  -10.1870  -10.0570 C   0  0  2  0  0  0  0  0  0  0  0  0
   21.6290   -9.0120   -9.9800 C   0  0  0  0  0  0  0  0  0  0  0  0
   20.1060   -9.2800   -7.8900 C   0  0  1  0  0  0  0  0  0  0  0  0
   20.4550   -8.1310   -7.2590 O   0  0  0  0  0  0  0  0  0  0  0  0
   18.9820   -9.0750   -8.8400 C   0  0  0  0  0  0  0  0  0  0  0  0
   19.1680  -10.0650   -9.9200 C   0  0  2  0  0  0  0  0  0  0  0  0
   18.5500  -11.3640   -9.6270 N   0  0  0  0  0  0  0  0  0  0  0  0
   19.1640  -12.3820   -8.9950 C   0  0  0  0  0  0  0  0  0  0  0  0
   18.3070  -13.4100   -8.8870 N   0  0  0  0  0  0  0  0  0  0  0  0
   17.1130  -13.0810   -9.4520 C   0  0  0  0  0  0  0  0  0  0  0  0
   17.2740  -11.7700   -9.9240 C   0  0  0  0  0  0  0  0  0  0  0  0
   16.2360  -11.1560  -10.5400 N   0  0  0  0  0  0  0  0  0  0  0  0
   15.0620  -11.7940  -10.6980 C   0  0  0  0  0  0  0  0  0  0  0  0
   14.8810  -13.0530  -10.2540 N   0  0  0  0  0  0  0  0  0  0  0  0
   15.8640  -13.7180   -9.6340 C   0  0  0  0  0  0  0  0  0  0  0  0
   15.6270  -15.0640   -9.1700 N   0  0  0  0  0  0  0  0  0  0  0  0
   22.2720  -10.7200   -8.1530 C   0  0  0  0  0  0  0  0  0  0  0  0
   22.1230  -11.1130   -6.8240 O   0  0  0  0  0  0  0  0  0  0  0  0
   22.3570  -10.2750   -4.3810 O   0  0  0  0  0  0  0  0  0  0  0  0
   23.0720  -10.4710   -5.7670 P   0  0  0  0  0  0  0  0  0  0  0  0
   24.2160  -11.4590   -5.6270 O   0  0  0  0  0  0  0  0  0  0  0  0
   23.4500   -9.0990   -6.2650 O   0  0  0  0  0  0  0  0  0  0  0  0
  1  3  1  0  0  0  0
  1  2  1  0  0  0  0
  1  4  1  0  0  0  0
  1 18  1  1  0  0  0
  2  7  1  0  0  0  0
  2  3  1  6  0  0  0
  4  6  1  0  0  0  0
  4  5  1  6  0  0  0
  7  6  1  1  0  0  0
  7  8  1  0  0  0  0
  8 12  1  0  0  0  0
  8  9  1  0  0  0  0
  9 10  2  0  0  0  0
 10 11  1  0  0  0  0
 11 12  2  0  0  0  0
 11 16  1  0  0  0  0
 12 13  1  0  0  0  0
 13 14  2  0  0  0  0
 14 15  1  0  0  0  0
 15 16  2  0  0  0  0
 16 17  1  0  0  0  0
 18 19  1  0  0  0  0
 19 21  1  0  0  0  0
 20 21  2  0  0  0  0
 21 22  1  0  0  0  0
 21 23  1  0  0  0  0
M  END
>  <MODEL>
       1

>  <COMPND>
    UNNAMED

>  <AUTHOR>
    GENERATED BY OPEN BABEL 2.4.90

>  <MASTER>
        0    0    0    0    0    0    0    0   23    0   23    0

