__3t5k_A_rec_2xca_doc_lig_min.pdb
 OpenBabel10181921063D

 18 19  0  0  1  0  0  0  0  0999 V2000
   27.0950  -21.3260  -12.6550 N   0  0  0  0  0  0  0  0  0  0  0  0
   28.3740  -21.2790  -13.2260 C   0  0  0  0  0  0  0  0  0  0  0  0
   28.6320  -21.9900  -14.4030 N   0  0  0  0  0  0  0  0  0  0  0  0
   27.6210  -22.7500  -15.0000 C   0  0  0  0  0  0  0  0  0  0  0  0
   26.3540  -22.7980  -14.4230 C   0  0  0  0  0  0  0  0  0  0  0  0
   26.0880  -22.0890  -13.2560 C   0  0  0  0  0  0  0  0  0  0  0  0
   29.2680  -20.6380  -12.6750 O   0  0  0  0  0  0  0  0  0  0  0  0
   27.8810  -23.4330  -16.1130 N   0  0  0  0  0  0  0  0  0  0  0  0
   26.8160  -20.5160  -11.4490 C   0  0  1  0  0  0  0  0  0  0  0  0
   25.5730  -19.6330  -11.5570 C   0  0  0  0  0  0  0  0  0  0  0  0
   25.5780  -19.1220  -10.1160 C   0  0  0  0  0  0  0  0  0  0  0  0
   25.8890  -20.4010   -9.3330 C   0  0  2  0  0  0  0  0  0  0  0  0
   26.5300  -21.3210  -10.2930 O   0  0  0  0  0  0  0  0  0  0  0  0
   24.5990  -21.0550   -8.8320 C   0  0  0  0  0  0  0  0  0  0  0  0
   24.4480  -22.3550   -9.4050 O   0  0  0  0  0  0  0  0  0  0  0  0
   24.4010  -23.6190   -8.4500 P   0  0  0  0  0  0  0  0  0  0  0  0
   25.7960  -24.1490   -8.3220 O   0  0  0  0  0  0  0  0  0  0  0  0
   23.6900  -23.2610   -7.2020 O   0  0  0  0  0  0  0  0  0  0  0  0
  1  2  1  0  0  0  0
  1  6  1  0  0  0  0
  2  7  2  0  0  0  0
  2  3  1  0  0  0  0
  3  4  2  0  0  0  0
  4  8  1  0  0  0  0
  4  5  1  0  0  0  0
  5  6  2  0  0  0  0
  9  1  1  6  0  0  0
  9 13  1  0  0  0  0
  9 10  1  0  0  0  0
 10 11  1  0  0  0  0
 11 12  1  0  0  0  0
 12 13  1  0  0  0  0
 12 14  1  6  0  0  0
 14 15  1  0  0  0  0
 15 16  1  0  0  0  0
 16 17  2  0  0  0  0
 16 18  2  0  0  0  0
M  END
>  <COMPND>
    UNNAMED

>  <AUTHOR>
    GENERATED BY OPEN BABEL 2.4.90

>  <MASTER>
        0    0    0    0    0    0    0    0   18    0   18    0

