__4fbu_A_rec_4qwa_0g8_lig_min.pdb
 OpenBabel10181922283D

 23 24  0  0  1  0  0  0  0  0999 V2000
   18.8200  -12.1400  -10.7540 C   0  0  1  0  0  0  0  0  0  0  0  0
   19.2240  -11.1450   -9.8000 O   0  0  0  0  0  0  0  0  0  0  0  0
   20.0090  -13.0810  -10.9690 C   0  0  0  0  0  0  0  0  0  0  0  0
   21.3880  -11.8820  -10.9730 S   0  0  0  0  0  0  0  0  0  0  0  0
   20.3780  -10.4920  -10.3540 C   0  0  2  0  0  0  0  0  0  0  0  0
   16.1600  -11.5670  -11.1940 O   0  0  0  0  0  0  0  0  0  0  0  0
   16.3750  -12.5380  -10.4790 C   0  0  0  0  0  0  0  0  0  0  0  0
   15.3480  -13.2480   -9.9670 N   0  0  0  0  0  0  0  0  0  0  0  0
   15.5620  -14.3110   -9.1670 C   0  0  0  0  0  0  0  0  0  0  0  0
   14.5250  -14.9790   -8.6800 N   0  0  0  0  0  0  0  0  0  0  0  0
   16.8520  -14.7070   -8.8470 C   0  0  0  0  0  0  0  0  0  0  0  0
   17.9350  -14.0050   -9.3530 C   0  0  0  0  0  0  0  0  0  0  0  0
   17.6830  -12.9000  -10.1860 N   0  0  0  0  0  0  0  0  0  0  0  0
   21.0730   -9.7180   -9.2360 C   0  0  0  0  0  0  0  0  0  0  0  0
   20.6210  -10.1930   -7.9670 O   0  0  0  0  0  0  0  0  0  0  0  0
   21.6630  -10.3030   -6.7480 P   0  0  1  0  0  0  0  0  0  0  0  0
   22.4650   -9.0640   -6.6930 O   0  0  0  0  0  0  0  0  0  0  0  0
   20.9120  -10.6880   -5.5330 O   0  0  0  0  0  0  0  0  0  0  0  0
   22.5780  -11.5560   -7.1770 O   0  0  0  0  0  0  0  0  0  0  0  0
   23.6560  -12.2300   -6.1860 P   0  0  0  0  0  0  0  0  0  0  0  0
   23.6390  -11.3970   -4.8090 O   0  0  0  0  0  0  0  0  0  0  0  0
   23.0620  -13.6880   -5.8500 O   0  0  0  0  0  0  0  0  0  0  0  0
   25.0200  -12.3100   -6.7470 O   0  0  0  0  0  0  0  0  0  0  0  0
  1  3  1  1  0  0  0
  1 13  1  0  0  0  0
  1  2  1  0  0  0  0
  2  5  1  0  0  0  0
  3  4  1  0  0  0  0
  4  5  1  0  0  0  0
  5 14  1  1  0  0  0
  6  7  2  0  0  0  0
  7  8  1  0  0  0  0
  7 13  1  0  0  0  0
  8  9  2  0  0  0  0
  9 10  1  0  0  0  0
  9 11  1  0  0  0  0
 11 12  2  0  0  0  0
 12 13  1  0  0  0  0
 14 15  1  0  0  0  0
 15 16  1  0  0  0  0
 16 17  2  1  0  0  0
 16 19  1  0  0  0  0
 16 18  1  0  0  0  0
 19 20  1  0  0  0  0
 20 23  2  0  0  0  0
 20 22  1  0  0  0  0
 20 21  1  0  0  0  0
M  END
>  <COMPND>
    UNNAMED

>  <AUTHOR>
    GENERATED BY OPEN BABEL 2.4.90

>  <MASTER>
        0    0    0    0    0    0    0    0   23    0   23    0

