__4fbu_A_rec_3khh_doc_lig_min.pdb
 OpenBabel10181920423D

 18 19  0  0  1  0  0  0  0  0999 V2000
   25.6950  -19.9490  -10.9250 N   0  0  0  0  0  0  0  0  0  0  0  0
   26.2980  -19.7760  -12.1790 C   0  0  0  0  0  0  0  0  0  0  0  0
   25.7900  -20.4300  -13.2640 N   0  0  0  0  0  0  0  0  0  0  0  0
   24.7260  -21.2280  -13.1330 C   0  0  0  0  0  0  0  0  0  0  0  0
   24.0900  -21.4180  -11.8630 C   0  0  0  0  0  0  0  0  0  0  0  0
   24.5960  -20.7670  -10.7960 C   0  0  0  0  0  0  0  0  0  0  0  0
   27.2800  -19.0260  -12.2480 O   0  0  0  0  0  0  0  0  0  0  0  0
   24.2760  -21.8470  -14.2320 N   0  0  0  0  0  0  0  0  0  0  0  0
   26.2920  -19.1930   -9.7640 C   0  0  1  0  0  0  0  0  0  0  0  0
   25.3120  -18.7270   -8.6930 C   0  0  0  0  0  0  0  0  0  0  0  0
   26.2850  -18.4460   -7.5570 C   0  0  0  0  0  0  0  0  0  0  0  0
   27.3840  -19.4820   -7.7520 C   0  0  2  0  0  0  0  0  0  0  0  0
   27.2160  -20.0120   -9.0900 O   0  0  0  0  0  0  0  0  0  0  0  0
   27.3960  -20.6340   -6.7570 C   0  0  0  0  0  0  0  0  0  0  0  0
   26.1140  -20.9060   -6.1400 O   0  0  0  0  0  0  0  0  0  0  0  0
   25.1460  -21.9770   -6.8460 P   0  0  0  0  0  0  0  0  0  0  0  0
   25.9340  -22.7160   -7.8630 O   0  0  0  0  0  0  0  0  0  0  0  0
   24.4090  -22.7370   -5.8140 O   0  0  0  0  0  0  0  0  0  0  0  0
  1  2  1  0  0  0  0
  1  6  1  0  0  0  0
  2  7  2  0  0  0  0
  2  3  1  0  0  0  0
  3  4  2  0  0  0  0
  4  8  1  0  0  0  0
  4  5  1  0  0  0  0
  5  6  2  0  0  0  0
  9  1  1  6  0  0  0
  9 13  1  0  0  0  0
  9 10  1  0  0  0  0
 10 11  1  0  0  0  0
 11 12  1  0  0  0  0
 12 13  1  0  0  0  0
 12 14  1  1  0  0  0
 14 15  1  0  0  0  0
 15 16  1  0  0  0  0
 16 17  2  0  0  0  0
 16 18  2  0  0  0  0
M  END
>  <COMPND>
    UNNAMED

>  <AUTHOR>
    GENERATED BY OPEN BABEL 2.4.90

>  <MASTER>
        0    0    0    0    0    0    0    0   18    0   18    0

