__4gc7_A_rec_3khh_doc_lig_min.pdb
 OpenBabel10181918363D

 18 19  0  0  1  0  0  0  0  0999 V2000
   22.6470  -19.3900  -11.6950 N   0  0  0  0  0  0  0  0  0  0  0  0
   22.2890  -18.5270  -12.7400 C   0  0  0  0  0  0  0  0  0  0  0  0
   21.1250  -18.7420  -13.4190 N   0  0  0  0  0  0  0  0  0  0  0  0
   20.3320  -19.7660  -13.0910 C   0  0  0  0  0  0  0  0  0  0  0  0
   20.6740  -20.6600  -12.0240 C   0  0  0  0  0  0  0  0  0  0  0  0
   21.8250  -20.4400  -11.3560 C   0  0  0  0  0  0  0  0  0  0  0  0
   23.0560  -17.5930  -13.0060 O   0  0  0  0  0  0  0  0  0  0  0  0
   19.2060  -19.9300  -13.7960 N   0  0  0  0  0  0  0  0  0  0  0  0
   23.9390  -19.0980  -10.9720 C   0  0  1  0  0  0  0  0  0  0  0  0
   23.8050  -18.5280   -9.5640 C   0  0  0  0  0  0  0  0  0  0  0  0
   25.2090  -18.7970   -9.0430 C   0  0  0  0  0  0  0  0  0  0  0  0
   25.6170  -20.0900   -9.7380 C   0  0  2  0  0  0  0  0  0  0  0  0
   24.6780  -20.2850  -10.8240 O   0  0  0  0  0  0  0  0  0  0  0  0
   25.6360  -21.3360   -8.8640 C   0  0  0  0  0  0  0  0  0  0  0  0
   24.3290  -21.8980   -8.5930 O   0  0  0  0  0  0  0  0  0  0  0  0
   24.1220  -23.4760   -8.8140 P   0  0  0  0  0  0  0  0  0  0  0  0
   25.3740  -24.1690   -8.4190 O   0  0  0  0  0  0  0  0  0  0  0  0
   22.8430  -23.9000   -8.2080 O   0  0  0  0  0  0  0  0  0  0  0  0
  1  2  1  0  0  0  0
  1  6  1  0  0  0  0
  2  7  2  0  0  0  0
  2  3  1  0  0  0  0
  3  4  2  0  0  0  0
  4  8  1  0  0  0  0
  4  5  1  0  0  0  0
  5  6  2  0  0  0  0
  9  1  1  1  0  0  0
  9 13  1  0  0  0  0
  9 10  1  0  0  0  0
 10 11  1  0  0  0  0
 11 12  1  0  0  0  0
 12 13  1  0  0  0  0
 12 14  1  1  0  0  0
 14 15  1  0  0  0  0
 15 16  1  0  0  0  0
 16 17  2  0  0  0  0
 16 18  2  0  0  0  0
M  END
>  <COMPND>
    UNNAMED

>  <AUTHOR>
    GENERATED BY OPEN BABEL 2.4.90

>  <MASTER>
        0    0    0    0    0    0    0    0   18    0   18    0

