__4jv0_A_rec_4qwe_ftd_lig_min.pdb
 OpenBabel10181921463D

 24 25  0  0  1  0  0  0  0  0999 V2000
   19.1650  -11.1220   -9.8810 C   0  0  1  0  0  0  0  0  0  0  0  0
   19.9690  -11.0980   -8.7290 O   0  0  0  0  0  0  0  0  0  0  0  0
   20.0170  -11.5990  -11.0780 C   0  0  0  0  0  0  0  0  0  0  0  0
   21.6050  -10.9790  -10.6430 S   0  0  0  0  0  0  0  0  0  0  0  0
   21.2380  -10.4860   -8.9960 C   0  0  2  0  0  0  0  0  0  0  0  0
   16.6450  -10.4970  -10.5080 O   0  0  0  0  0  0  0  0  0  0  0  0
   16.7770  -11.6270  -10.0260 C   0  0  0  0  0  0  0  0  0  0  0  0
   15.7280  -12.4680   -9.8630 N   0  0  0  0  0  0  0  0  0  0  0  0
   15.8820  -13.7220   -9.3340 C   0  0  0  0  0  0  0  0  0  0  0  0
   14.8120  -14.5610   -9.1880 N   0  0  0  0  0  0  0  0  0  0  0  0
   17.1350  -14.1290   -8.9380 C   0  0  0  0  0  0  0  0  0  0  0  0
   17.3020  -15.3250   -8.4160 F   0  0  0  0  0  0  0  0  0  0  0  0
   18.2400  -13.3020   -9.0870 C   0  0  0  0  0  0  0  0  0  0  0  0
   18.0330  -11.9900   -9.5410 N   0  0  0  0  0  0  0  0  0  0  0  0
   22.2710  -11.1040   -8.0690 C   0  0  0  0  0  0  0  0  0  0  0  0
   21.6670  -11.1060   -6.7790 O   0  0  0  0  0  0  0  0  0  0  0  0
   22.3680  -10.4060   -5.5340 P   0  0  1  0  0  0  0  0  0  0  0  0
   23.1180   -9.1950   -6.0140 O   0  0  0  0  0  0  0  0  0  0  0  0
   21.2170  -10.3470   -4.5930 O   0  0  0  0  0  0  0  0  0  0  0  0
   23.4880  -11.4500   -5.0670 O   0  0  0  0  0  0  0  0  0  0  0  0
   24.2520  -11.3160   -3.6420 P   0  0  0  0  0  0  0  0  0  0  0  0
   25.5670  -10.7460   -4.0480 O   0  0  0  0  0  0  0  0  0  0  0  0
   23.5240  -10.2850   -2.7810 O   0  0  0  0  0  0  0  0  0  0  0  0
   24.3130  -12.6520   -2.9600 O   0  0  0  0  0  0  0  0  0  0  0  0
  1  3  1  6  0  0  0
  1 14  1  0  0  0  0
  1  2  1  0  0  0  0
  2  5  1  0  0  0  0
  3  4  1  0  0  0  0
  4  5  1  0  0  0  0
  5 15  1  1  0  0  0
  6  7  2  0  0  0  0
  7  8  1  0  0  0  0
  7 14  1  0  0  0  0
  8  9  1  0  0  0  0
  9 10  1  0  0  0  0
  9 11  2  0  0  0  0
 11 13  1  0  0  0  0
 11 12  1  0  0  0  0
 13 14  1  0  0  0  0
 15 16  1  0  0  0  0
 16 17  1  0  0  0  0
 17 18  2  6  0  0  0
 17 20  1  0  0  0  0
 17 19  1  0  0  0  0
 20 21  1  0  0  0  0
 21 22  2  0  0  0  0
 21 24  1  0  0  0  0
 21 23  1  0  0  0  0
M  END
>  <COMPND>
    UNNAMED

>  <AUTHOR>
    GENERATED BY OPEN BABEL 2.4.90

>  <MASTER>
        0    0    0    0    0    0    0    0   24    0   24    0

