__4qw9_A_rec_4qwa_0g8_lig_min.pdb
 OpenBabel10181922103D

 23 24  0  0  1  0  0  0  0  0999 V2000
   18.3860  -10.7280  -10.4020 C   0  0  1  0  0  0  0  0  0  0  0  0
   19.2800  -10.4730   -9.3070 O   0  0  0  0  0  0  0  0  0  0  0  0
   19.2410  -11.1060  -11.6160 C   0  0  0  0  0  0  0  0  0  0  0  0
   20.6290   -9.9320  -11.4260 S   0  0  0  0  0  0  0  0  0  0  0  0
   20.1620   -9.4240   -9.7340 C   0  0  2  0  0  0  0  0  0  0  0  0
   15.6970  -10.9010  -10.9850 O   0  0  0  0  0  0  0  0  0  0  0  0
   16.1680  -11.8640  -10.3920 C   0  0  0  0  0  0  0  0  0  0  0  0
   15.3840  -12.9130  -10.0680 N   0  0  0  0  0  0  0  0  0  0  0  0
   15.8770  -13.9760   -9.4020 C   0  0  0  0  0  0  0  0  0  0  0  0
   15.0720  -14.9850   -9.0990 N   0  0  0  0  0  0  0  0  0  0  0  0
   17.2120  -14.0210   -9.0310 C   0  0  0  0  0  0  0  0  0  0  0  0
   18.0520  -12.9620   -9.3440 C   0  0  0  0  0  0  0  0  0  0  0  0
   17.5110  -11.8660  -10.0390 N   0  0  0  0  0  0  0  0  0  0  0  0
   21.3590   -9.3890   -8.7860 C   0  0  0  0  0  0  0  0  0  0  0  0
   20.9040   -9.2240   -7.4410 O   0  0  0  0  0  0  0  0  0  0  0  0
   21.8540   -9.6740   -6.2260 P   0  0  1  0  0  0  0  0  0  0  0  0
   23.0540   -8.8130   -6.2130 O   0  0  0  0  0  0  0  0  0  0  0  0
   21.0340   -9.7270   -4.9950 O   0  0  0  0  0  0  0  0  0  0  0  0
   22.2420  -11.1860   -6.6210 O   0  0  0  0  0  0  0  0  0  0  0  0
   23.4010  -12.0160   -5.8700 P   0  0  0  0  0  0  0  0  0  0  0  0
   23.5900  -11.3720   -4.4070 O   0  0  0  0  0  0  0  0  0  0  0  0
   22.7850  -13.4870   -5.6490 O   0  0  0  0  0  0  0  0  0  0  0  0
   24.6800  -12.0620   -6.6050 O   0  0  0  0  0  0  0  0  0  0  0  0
  1  3  1  6  0  0  0
  1 13  1  0  0  0  0
  1  2  1  0  0  0  0
  2  5  1  0  0  0  0
  3  4  1  0  0  0  0
  4  5  1  0  0  0  0
  5 14  1  1  0  0  0
  6  7  2  0  0  0  0
  7  8  1  0  0  0  0
  7 13  1  0  0  0  0
  8  9  2  0  0  0  0
  9 10  1  0  0  0  0
  9 11  1  0  0  0  0
 11 12  2  0  0  0  0
 12 13  1  0  0  0  0
 14 15  1  0  0  0  0
 15 16  1  0  0  0  0
 16 17  2  1  0  0  0
 16 19  1  0  0  0  0
 16 18  1  0  0  0  0
 19 20  1  0  0  0  0
 20 23  2  0  0  0  0
 20 22  1  0  0  0  0
 20 21  1  0  0  0  0
M  END
>  <COMPND>
    UNNAMED

>  <AUTHOR>
    GENERATED BY OPEN BABEL 2.4.90

>  <MASTER>
        0    0    0    0    0    0    0    0   23    0   23    0

