__4qw9_A_rec_3khh_doc_lig_min.pdb
 OpenBabel10191903203D

 18 19  0  0  1  0  0  0  0  0999 V2000
   25.6880  -19.3300   -9.4450 N   0  0  0  0  0  0  0  0  0  0  0  0
   25.6490  -17.9300   -9.4100 C   0  0  0  0  0  0  0  0  0  0  0  0
   25.8690  -17.2800   -8.2300 N   0  0  0  0  0  0  0  0  0  0  0  0
   26.1220  -17.9740   -7.1160 C   0  0  0  0  0  0  0  0  0  0  0  0
   26.1710  -19.4070   -7.1270 C   0  0  0  0  0  0  0  0  0  0  0  0
   25.9540  -20.0410   -8.2970 C   0  0  0  0  0  0  0  0  0  0  0  0
   25.4110  -17.3330  -10.4690 O   0  0  0  0  0  0  0  0  0  0  0  0
   26.3250  -17.2830   -5.9880 N   0  0  0  0  0  0  0  0  0  0  0  0
   25.4470  -19.9940  -10.7790 C   0  0  1  0  0  0  0  0  0  0  0  0
   26.5230  -20.9690  -11.2460 C   0  0  0  0  0  0  0  0  0  0  0  0
   25.7420  -21.7190  -12.3150 C   0  0  0  0  0  0  0  0  0  0  0  0
   24.3150  -21.7340  -11.7860 C   0  0  2  0  0  0  0  0  0  0  0  0
   24.2600  -20.7470  -10.7260 O   0  0  0  0  0  0  0  0  0  0  0  0
   23.8170  -23.0690  -11.2510 C   0  0  0  0  0  0  0  0  0  0  0  0
   23.0870  -22.9800  -10.0040 O   0  0  0  0  0  0  0  0  0  0  0  0
   23.7670  -23.5930   -8.6820 P   0  0  0  0  0  0  0  0  0  0  0  0
   25.1920  -23.8780   -8.9830 O   0  0  0  0  0  0  0  0  0  0  0  0
   23.4310  -22.7510   -7.5150 O   0  0  0  0  0  0  0  0  0  0  0  0
  1  2  1  0  0  0  0
  1  6  1  0  0  0  0
  2  7  2  0  0  0  0
  2  3  1  0  0  0  0
  3  4  2  0  0  0  0
  4  8  1  0  0  0  0
  4  5  1  0  0  0  0
  5  6  2  0  0  0  0
  9  1  1  1  0  0  0
  9 13  1  0  0  0  0
  9 10  1  0  0  0  0
 10 11  1  0  0  0  0
 11 12  1  0  0  0  0
 12 13  1  0  0  0  0
 12 14  1  1  0  0  0
 14 15  1  0  0  0  0
 15 16  1  0  0  0  0
 16 17  2  0  0  0  0
 16 18  2  0  0  0  0
M  END
>  <COMPND>
    UNNAMED

>  <AUTHOR>
    GENERATED BY OPEN BABEL 2.4.90

>  <MASTER>
        0    0    0    0    0    0    0    0   18    0   18    0

