__4qwa_A_rec_3khh_doc_lig_min.pdb
 OpenBabel10191904093D

 18 19  0  0  1  0  0  0  0  0999 V2000
   24.7070  -19.0550  -12.7500 N   0  0  0  0  0  0  0  0  0  0  0  0
   25.0120  -18.7150  -14.0750 C   0  0  0  0  0  0  0  0  0  0  0  0
   24.0720  -18.0900  -14.8410 N   0  0  0  0  0  0  0  0  0  0  0  0
   22.8700  -17.8020  -14.3330 C   0  0  0  0  0  0  0  0  0  0  0  0
   22.5350  -18.1360  -12.9790 C   0  0  0  0  0  0  0  0  0  0  0  0
   23.4710  -18.7510  -12.2280 C   0  0  0  0  0  0  0  0  0  0  0  0
   26.1390  -19.0020  -14.4990 O   0  0  0  0  0  0  0  0  0  0  0  0
   21.9860  -17.1930  -15.1330 N   0  0  0  0  0  0  0  0  0  0  0  0
   25.7880  -19.7350  -11.9460 C   0  0  1  0  0  0  0  0  0  0  0  0
   26.5350  -18.8560  -10.9480 C   0  0  0  0  0  0  0  0  0  0  0  0
   27.1630  -19.9330  -10.0760 C   0  0  0  0  0  0  0  0  0  0  0  0
   26.1380  -21.0590  -10.0890 C   0  0  2  0  0  0  0  0  0  0  0  0
   25.2280  -20.7730  -11.1800 O   0  0  0  0  0  0  0  0  0  0  0  0
   25.3380  -21.2460   -8.8080 C   0  0  0  0  0  0  0  0  0  0  0  0
   24.1310  -22.0310   -8.9640 O   0  0  0  0  0  0  0  0  0  0  0  0
   24.1220  -23.5300   -8.3840 P   0  0  0  0  0  0  0  0  0  0  0  0
   25.4330  -24.1540   -8.6890 O   0  0  0  0  0  0  0  0  0  0  0  0
   23.6360  -23.5200   -6.9880 O   0  0  0  0  0  0  0  0  0  0  0  0
  1  2  1  0  0  0  0
  1  6  1  0  0  0  0
  2  7  2  0  0  0  0
  2  3  1  0  0  0  0
  3  4  2  0  0  0  0
  4  8  1  0  0  0  0
  4  5  1  0  0  0  0
  5  6  2  0  0  0  0
  9  1  1  1  0  0  0
  9 13  1  0  0  0  0
  9 10  1  0  0  0  0
 10 11  1  0  0  0  0
 11 12  1  0  0  0  0
 12 13  1  0  0  0  0
 12 14  1  1  0  0  0
 14 15  1  0  0  0  0
 15 16  1  0  0  0  0
 16 17  2  0  0  0  0
 16 18  2  0  0  0  0
M  END
>  <COMPND>
    UNNAMED

>  <AUTHOR>
    GENERATED BY OPEN BABEL 2.4.90

>  <MASTER>
        0    0    0    0    0    0    0    0   18    0   18    0

