__4qwa_A_rec_4qwe_ftd_lig_min.pdb
 OpenBabel10181920073D

 24 25  0  0  1  0  0  0  0  0999 V2000
   18.7370  -11.1620  -10.6190 C   0  0  1  0  0  0  0  0  0  0  0  0
   19.4940  -10.7720   -9.5010 O   0  0  0  0  0  0  0  0  0  0  0  0
   19.6830  -11.7750  -11.6760 C   0  0  0  0  0  0  0  0  0  0  0  0
   21.1610  -10.8650  -11.3890 S   0  0  0  0  0  0  0  0  0  0  0  0
   20.6800  -10.0700   -9.8970 C   0  0  2  0  0  0  0  0  0  0  0  0
   16.1260  -10.7860  -11.0380 O   0  0  0  0  0  0  0  0  0  0  0  0
   16.3960  -11.8540  -10.4770 C   0  0  0  0  0  0  0  0  0  0  0  0
   15.4410  -12.7510  -10.1390 N   0  0  0  0  0  0  0  0  0  0  0  0
   15.7480  -13.9360   -9.5230 C   0  0  0  0  0  0  0  0  0  0  0  0
   14.7700  -14.8360   -9.1990 N   0  0  0  0  0  0  0  0  0  0  0  0
   17.0620  -14.2110   -9.2240 C   0  0  0  0  0  0  0  0  0  0  0  0
   17.3760  -15.3380   -8.6230 F   0  0  0  0  0  0  0  0  0  0  0  0
   18.0750  -13.3220   -9.5540 C   0  0  0  0  0  0  0  0  0  0  0  0
   17.7180  -12.0760  -10.0940 N   0  0  0  0  0  0  0  0  0  0  0  0
   21.7540  -10.3200   -8.8530 C   0  0  0  0  0  0  0  0  0  0  0  0
   21.2380   -9.7730   -7.6430 O   0  0  0  0  0  0  0  0  0  0  0  0
   22.1530   -9.6030   -6.3520 P   0  0  1  0  0  0  0  0  0  0  0  0
   23.2010   -8.5630   -6.6320 O   0  0  0  0  0  0  0  0  0  0  0  0
   21.1010   -9.4590   -5.3110 O   0  0  0  0  0  0  0  0  0  0  0  0
   22.9420  -10.9920   -6.2370 O   0  0  0  0  0  0  0  0  0  0  0  0
   23.6660  -11.4600   -4.8620 P   0  0  0  0  0  0  0  0  0  0  0  0
   25.0780  -11.6370   -5.3010 O   0  0  0  0  0  0  0  0  0  0  0  0
   23.6140  -10.3130   -3.8550 O   0  0  0  0  0  0  0  0  0  0  0  0
   23.0010  -12.6930   -4.3230 O   0  0  0  0  0  0  0  0  0  0  0  0
  1  3  1  6  0  0  0
  1 14  1  0  0  0  0
  1  2  1  0  0  0  0
  2  5  1  0  0  0  0
  3  4  1  0  0  0  0
  4  5  1  0  0  0  0
  5 15  1  1  0  0  0
  6  7  2  0  0  0  0
  7  8  1  0  0  0  0
  7 14  1  0  0  0  0
  8  9  1  0  0  0  0
  9 10  1  0  0  0  0
  9 11  2  0  0  0  0
 11 13  1  0  0  0  0
 11 12  1  0  0  0  0
 13 14  1  0  0  0  0
 15 16  1  0  0  0  0
 16 17  1  0  0  0  0
 17 18  2  6  0  0  0
 17 20  1  0  0  0  0
 17 19  1  0  0  0  0
 20 21  1  0  0  0  0
 21 22  2  0  0  0  0
 21 24  1  0  0  0  0
 21 23  1  0  0  0  0
M  END
>  <COMPND>
    UNNAMED

>  <AUTHOR>
    GENERATED BY OPEN BABEL 2.4.90

>  <MASTER>
        0    0    0    0    0    0    0    0   24    0   24    0

