__4qwb_A_rec_4gc6_0oh_lig_docked.pdb
 OpenBabel10191911523D

 23 26  0  0  1  0  0  0  0  0999 V2000
   21.2890   -9.6660   -8.5620 C   0  0  1  0  0  0  0  0  0  0  0  0
   20.8750  -10.2690   -9.8950 C   0  0  2  0  0  0  0  0  0  0  0  0
   21.6600   -8.9710   -9.8460 C   0  0  0  0  0  0  0  0  0  0  0  0
   20.0160   -9.2930   -7.8570 C   0  0  1  0  0  0  0  0  0  0  0  0
   20.1570   -8.0650   -7.3000 O   0  0  0  0  0  0  0  0  0  0  0  0
   18.9580   -9.3150   -8.9010 C   0  0  0  0  0  0  0  0  0  0  0  0
   19.3620  -10.3450   -9.8780 C   0  0  2  0  0  0  0  0  0  0  0  0
   18.8970  -11.6920   -9.5240 N   0  0  0  0  0  0  0  0  0  0  0  0
   19.6630  -12.6450   -8.9600 C   0  0  0  0  0  0  0  0  0  0  0  0
   18.9180  -13.7450   -8.7660 N   0  0  0  0  0  0  0  0  0  0  0  0
   17.6480  -13.5300   -9.2050 C   0  0  0  0  0  0  0  0  0  0  0  0
   17.6400  -12.2140   -9.6900 C   0  0  0  0  0  0  0  0  0  0  0  0
   16.4930  -11.7020  -10.1960 N   0  0  0  0  0  0  0  0  0  0  0  0
   15.3720  -12.4450  -10.2340 C   0  0  0  0  0  0  0  0  0  0  0  0
   15.3520  -13.7100   -9.7750 N   0  0  0  0  0  0  0  0  0  0  0  0
   16.4490  -14.2790   -9.2590 C   0  0  0  0  0  0  0  0  0  0  0  0
   16.3850  -15.6370   -8.7740 N   0  0  0  0  0  0  0  0  0  0  0  0
   22.3670  -10.4380   -7.8410 C   0  0  0  0  0  0  0  0  0  0  0  0
   22.0490  -11.0100   -6.6110 O   0  0  0  0  0  0  0  0  0  0  0  0
   21.2510   -9.4320   -4.7140 O   0  0  0  0  0  0  0  0  0  0  0  0
   22.4580  -10.2340   -5.3220 P   0  0  0  0  0  0  0  0  0  0  0  0
   22.9100  -11.3100   -4.3510 O   0  0  0  0  0  0  0  0  0  0  0  0
   23.5070   -9.2230   -5.7110 O   0  0  0  0  0  0  0  0  0  0  0  0
  1  3  1  0  0  0  0
  1  2  1  0  0  0  0
  1  4  1  0  0  0  0
  1 18  1  1  0  0  0
  2  7  1  0  0  0  0
  2  3  1  6  0  0  0
  4  6  1  0  0  0  0
  4  5  1  6  0  0  0
  7  6  1  1  0  0  0
  7  8  1  0  0  0  0
  8 12  1  0  0  0  0
  8  9  1  0  0  0  0
  9 10  2  0  0  0  0
 10 11  1  0  0  0  0
 11 12  2  0  0  0  0
 11 16  1  0  0  0  0
 12 13  1  0  0  0  0
 13 14  2  0  0  0  0
 14 15  1  0  0  0  0
 15 16  2  0  0  0  0
 16 17  1  0  0  0  0
 18 19  1  0  0  0  0
 19 21  1  0  0  0  0
 20 21  2  0  0  0  0
 21 22  1  0  0  0  0
 21 23  1  0  0  0  0
M  END
>  <MODEL>
       2

>  <COMPND>
    UNNAMED

>  <AUTHOR>
    GENERATED BY OPEN BABEL 2.4.90

>  <MASTER>
        0    0    0    0    0    0    0    0   23    0   23    0

