__4qwb_A_rec_3khh_doc_lig_min.pdb
 OpenBabel10191907063D

 18 19  0  0  1  0  0  0  0  0999 V2000
   25.5160  -20.7710  -12.2180 N   0  0  0  0  0  0  0  0  0  0  0  0
   25.8250  -20.3270  -13.5110 C   0  0  0  0  0  0  0  0  0  0  0  0
   25.3960  -21.0460  -14.5890 N   0  0  0  0  0  0  0  0  0  0  0  0
   24.6860  -22.1650  -14.4130 C   0  0  0  0  0  0  0  0  0  0  0  0
   24.3550  -22.6380  -13.1010 C   0  0  0  0  0  0  0  0  0  0  0  0
   24.7800  -21.9200  -12.0420 C   0  0  0  0  0  0  0  0  0  0  0  0
   26.4840  -19.2850  -13.6210 O   0  0  0  0  0  0  0  0  0  0  0  0
   24.2980  -22.8320  -15.5070 N   0  0  0  0  0  0  0  0  0  0  0  0
   26.0060  -19.9300  -11.0650 C   0  0  1  0  0  0  0  0  0  0  0  0
   24.9300  -19.3270  -10.1690 C   0  0  0  0  0  0  0  0  0  0  0  0
   25.7740  -18.9750   -8.9530 C   0  0  0  0  0  0  0  0  0  0  0  0
   26.8370  -20.0650   -8.9170 C   0  0  2  0  0  0  0  0  0  0  0  0
   26.8030  -20.7140  -10.2120 O   0  0  0  0  0  0  0  0  0  0  0  0
   26.6740  -21.1160   -7.8280 C   0  0  0  0  0  0  0  0  0  0  0  0
   25.3020  -21.3780   -7.4480 O   0  0  0  0  0  0  0  0  0  0  0  0
   24.5800  -22.6760   -8.0600 P   0  0  0  0  0  0  0  0  0  0  0  0
   25.6190  -23.5330   -8.6840 O   0  0  0  0  0  0  0  0  0  0  0  0
   23.6730  -23.2630   -7.0520 O   0  0  0  0  0  0  0  0  0  0  0  0
  1  2  1  0  0  0  0
  1  6  1  0  0  0  0
  2  7  2  0  0  0  0
  2  3  1  0  0  0  0
  3  4  2  0  0  0  0
  4  8  1  0  0  0  0
  4  5  1  0  0  0  0
  5  6  2  0  0  0  0
  9  1  1  6  0  0  0
  9 13  1  0  0  0  0
  9 10  1  0  0  0  0
 10 11  1  0  0  0  0
 11 12  1  0  0  0  0
 12 13  1  0  0  0  0
 12 14  1  1  0  0  0
 14 15  1  0  0  0  0
 15 16  1  0  0  0  0
 16 17  2  0  0  0  0
 16 18  2  0  0  0  0
M  END
>  <COMPND>
    UNNAMED

>  <AUTHOR>
    GENERATED BY OPEN BABEL 2.4.90

>  <MASTER>
        0    0    0    0    0    0    0    0   18    0   18    0

