__4qwe_A_rec_2xca_doc_lig_min.pdb
 OpenBabel10191908193D

 18 19  0  0  1  0  0  0  0  0999 V2000
   26.5730  -20.3400  -11.2760 N   0  0  0  0  0  0  0  0  0  0  0  0
   27.4770  -20.1550  -12.3300 C   0  0  0  0  0  0  0  0  0  0  0  0
   27.2560  -20.8020  -13.5510 N   0  0  0  0  0  0  0  0  0  0  0  0
   26.1450  -21.6360  -13.7120 C   0  0  0  0  0  0  0  0  0  0  0  0
   25.2550  -21.8220  -12.6580 C   0  0  0  0  0  0  0  0  0  0  0  0
   25.4640  -21.1770  -11.4430 C   0  0  0  0  0  0  0  0  0  0  0  0
   28.4700  -19.4490  -12.1680 O   0  0  0  0  0  0  0  0  0  0  0  0
   25.9520  -22.2570  -14.8740 N   0  0  0  0  0  0  0  0  0  0  0  0
   26.7790  -19.5980  -10.0130 C   0  0  1  0  0  0  0  0  0  0  0  0
   25.5410  -18.8540   -9.5090 C   0  0  0  0  0  0  0  0  0  0  0  0
   26.1310  -18.3830   -8.1800 C   0  0  0  0  0  0  0  0  0  0  0  0
   26.8640  -19.6410   -7.7020 C   0  0  2  0  0  0  0  0  0  0  0  0
   27.0990  -20.4590   -8.9080 O   0  0  0  0  0  0  0  0  0  0  0  0
   25.9860  -20.4450   -6.7410 C   0  0  0  0  0  0  0  0  0  0  0  0
   25.2630  -21.4500   -7.4540 O   0  0  0  0  0  0  0  0  0  0  0  0
   25.5710  -22.9770   -7.1630 P   0  0  0  0  0  0  0  0  0  0  0  0
   25.5660  -23.7040   -8.4720 O   0  0  0  0  0  0  0  0  0  0  0  0
   26.7920  -23.0780   -6.3320 O   0  0  0  0  0  0  0  0  0  0  0  0
  1  2  1  0  0  0  0
  1  6  1  0  0  0  0
  2  7  2  0  0  0  0
  2  3  1  0  0  0  0
  3  4  2  0  0  0  0
  4  8  1  0  0  0  0
  4  5  1  0  0  0  0
  5  6  2  0  0  0  0
  9  1  1  6  0  0  0
  9 13  1  0  0  0  0
  9 10  1  0  0  0  0
 10 11  1  0  0  0  0
 11 12  1  0  0  0  0
 12 13  1  0  0  0  0
 12 14  1  1  0  0  0
 14 15  1  0  0  0  0
 15 16  1  0  0  0  0
 16 17  2  0  0  0  0
 16 18  2  0  0  0  0
M  END
>  <COMPND>
    UNNAMED

>  <AUTHOR>
    GENERATED BY OPEN BABEL 2.4.90

>  <MASTER>
        0    0    0    0    0    0    0    0   18    0   18    0

