__4rua_A_rec_3rax_dgt_lig_docked.pdb
 OpenBabel10191908503D

 31 33  0  0  1  0  0  0  0  0999 V2000
   21.0160  -10.2940   -9.3330 C   0  0  1  0  0  0  0  0  0  0  0  0
   20.2810  -11.1370  -10.2320 O   0  0  0  0  0  0  0  0  0  0  0  0
   20.0270   -9.8280   -8.2730 C   0  0  1  0  0  0  0  0  0  0  0  0
   20.4590   -8.6200   -7.6360 O   0  0  0  0  0  0  0  0  0  0  0  0
   18.7760   -9.7100   -9.1300 C   0  0  0  0  0  0  0  0  0  0  0  0
   18.8870  -10.8600  -10.1370 C   0  0  2  0  0  0  0  0  0  0  0  0
   18.1000  -11.9650   -9.5810 N   0  0  0  0  0  0  0  0  0  0  0  0
   18.4630  -12.9260   -8.6610 C   0  0  0  0  0  0  0  0  0  0  0  0
   17.4890  -13.7450   -8.3320 N   0  0  0  0  0  0  0  0  0  0  0  0
   16.4130  -13.2850   -9.0760 C   0  0  0  0  0  0  0  0  0  0  0  0
   15.0780  -13.7540   -9.1620 C   0  0  0  0  0  0  0  0  0  0  0  0
   14.5750  -14.7040   -8.5540 O   0  0  0  0  0  0  0  0  0  0  0  0
   14.3040  -12.9970  -10.0610 N   0  0  0  0  0  0  0  0  0  0  0  0
   14.7360  -11.8980  -10.7780 C   0  0  0  0  0  0  0  0  0  0  0  0
   13.8820  -11.2690  -11.6030 N   0  0  0  0  0  0  0  0  0  0  0  0
   16.0080  -11.4870  -10.6940 N   0  0  0  0  0  0  0  0  0  0  0  0
   16.7700  -12.2070   -9.8410 C   0  0  0  0  0  0  0  0  0  0  0  0
   22.1990  -11.0660   -8.7710 C   0  0  0  0  0  0  0  0  0  0  0  0
   21.7440  -12.0490   -7.8510 O   0  0  0  0  0  0  0  0  0  0  0  0
   22.7570  -12.8030   -6.8530 P   0  0  1  0  0  0  0  0  0  0  0  0
   21.8250  -13.6170   -6.0000 O   0  0  0  0  0  0  0  0  0  0  0  0
   23.7500  -13.6560   -7.6270 O   0  0  0  0  0  0  0  0  0  0  0  0
   23.3530  -11.7000   -5.8550 O   0  0  0  0  0  0  0  0  0  0  0  0
   22.5680  -10.4440   -5.2270 P   0  0  1  0  0  0  0  0  0  0  0  0
   22.8440   -9.1400   -5.9290 O   0  0  0  0  0  0  0  0  0  0  0  0
   21.0840  -10.8030   -5.3250 O   0  0  0  0  0  0  0  0  0  0  0  0
   22.9210  -10.4800   -3.6580 O   0  0  0  0  0  0  0  0  0  0  0  0
   24.4790  -10.7480   -3.3530 P   0  0  0  0  0  0  0  0  0  0  0  0
   24.8210  -11.6740   -2.2290 O   0  0  0  0  0  0  0  0  0  0  0  0
   25.4870  -10.1410   -4.2880 O   0  0  0  0  0  0  0  0  0  0  0  0
   24.5550   -9.5610   -2.4560 O   0  0  0  0  0  0  0  0  0  0  0  0
  1  2  1  0  0  0  0
  1 18  1  1  0  0  0
  1  3  1  0  0  0  0
  2  6  1  0  0  0  0
  3  5  1  0  0  0  0
  3  4  1  6  0  0  0
  6  5  1  1  0  0  0
  6  7  1  0  0  0  0
  7 17  1  0  0  0  0
  7  8  1  0  0  0  0
  8  9  2  0  0  0  0
  9 10  1  0  0  0  0
 10 17  2  0  0  0  0
 10 11  1  0  0  0  0
 11 13  1  0  0  0  0
 11 12  2  0  0  0  0
 13 14  2  0  0  0  0
 14 15  1  0  0  0  0
 14 16  1  0  0  0  0
 16 17  1  0  0  0  0
 18 19  1  0  0  0  0
 19 20  1  0  0  0  0
 20 22  2  6  0  0  0
 20 21  1  0  0  0  0
 20 23  1  0  0  0  0
 23 24  1  0  0  0  0
 24 25  2  6  0  0  0
 24 26  1  0  0  0  0
 24 27  1  0  0  0  0
 27 28  1  0  0  0  0
 28 29  2  0  0  0  0
 28 31  1  0  0  0  0
 28 30  1  0  0  0  0
M  END
>  <MODEL>
       6

>  <COMPND>
    UNNAMED

>  <AUTHOR>
    GENERATED BY OPEN BABEL 2.4.90

>  <MASTER>
        0    0    0    0    0    0    0    0   31    0   31    0

