__4rua_A_rec_4qwe_ftd_lig_min.pdb
 OpenBabel10191904153D

 24 25  0  0  1  0  0  0  0  0999 V2000
   18.4250  -10.6640   -9.9380 C   0  0  1  0  0  0  0  0  0  0  0  0
   19.3000  -10.2900   -8.9050 O   0  0  0  0  0  0  0  0  0  0  0  0
   19.2540  -11.0310  -11.1900 C   0  0  0  0  0  0  0  0  0  0  0  0
   20.6400   -9.9610  -11.0140 S   0  0  0  0  0  0  0  0  0  0  0  0
   20.3140   -9.3960   -9.3820 C   0  0  2  0  0  0  0  0  0  0  0  0
   15.8180  -10.9260  -10.4570 O   0  0  0  0  0  0  0  0  0  0  0  0
   16.3010  -11.8690   -9.8200 C   0  0  0  0  0  0  0  0  0  0  0  0
   15.5630  -12.9420   -9.4520 N   0  0  0  0  0  0  0  0  0  0  0  0
   16.1050  -13.9870   -8.7520 C   0  0  0  0  0  0  0  0  0  0  0  0
   15.3460  -15.0690   -8.3980 N   0  0  0  0  0  0  0  0  0  0  0  0
   17.4330  -13.9340   -8.3960 C   0  0  0  0  0  0  0  0  0  0  0  0
   17.9700  -14.9210   -7.7140 F   0  0  0  0  0  0  0  0  0  0  0  0
   18.2300  -12.8540   -8.7540 C   0  0  0  0  0  0  0  0  0  0  0  0
   17.6210  -11.7580   -9.3850 N   0  0  0  0  0  0  0  0  0  0  0  0
   21.5640   -9.6010   -8.5450 C   0  0  0  0  0  0  0  0  0  0  0  0
   21.0970  -10.0060   -7.2620 O   0  0  0  0  0  0  0  0  0  0  0  0
   22.0800  -10.1060   -6.0140 P   0  0  1  0  0  0  0  0  0  0  0  0
   23.0420   -8.9540   -6.0590 O   0  0  0  0  0  0  0  0  0  0  0  0
   21.0880  -10.3150   -4.9250 O   0  0  0  0  0  0  0  0  0  0  0  0
   22.9570  -11.4140   -6.3020 O   0  0  0  0  0  0  0  0  0  0  0  0
   23.6530  -12.2650   -5.1080 P   0  0  0  0  0  0  0  0  0  0  0  0
   24.8310  -11.4200   -4.7700 O   0  0  0  0  0  0  0  0  0  0  0  0
   22.7150  -12.2910   -3.9020 O   0  0  0  0  0  0  0  0  0  0  0  0
   23.9720  -13.6530   -5.5820 O   0  0  0  0  0  0  0  0  0  0  0  0
  1  3  1  6  0  0  0
  1 14  1  0  0  0  0
  1  2  1  0  0  0  0
  2  5  1  0  0  0  0
  3  4  1  0  0  0  0
  4  5  1  0  0  0  0
  5 15  1  1  0  0  0
  6  7  2  0  0  0  0
  7  8  1  0  0  0  0
  7 14  1  0  0  0  0
  8  9  1  0  0  0  0
  9 10  1  0  0  0  0
  9 11  2  0  0  0  0
 11 13  1  0  0  0  0
 11 12  1  0  0  0  0
 13 14  1  0  0  0  0
 15 16  1  0  0  0  0
 16 17  1  0  0  0  0
 17 18  2  1  0  0  0
 17 20  1  0  0  0  0
 17 19  1  0  0  0  0
 20 21  1  0  0  0  0
 21 22  2  0  0  0  0
 21 24  1  0  0  0  0
 21 23  1  0  0  0  0
M  END
>  <COMPND>
    UNNAMED

>  <AUTHOR>
    GENERATED BY OPEN BABEL 2.4.90

>  <MASTER>
        0    0    0    0    0    0    0    0   24    0   24    0

