__4rua_A_rec_2xca_doc_lig_min.pdb
 OpenBabel10191908173D

 18 19  0  0  1  0  0  0  0  0999 V2000
   23.2160  -22.5870  -11.8870 N   0  0  0  0  0  0  0  0  0  0  0  0
   22.1440  -22.4920  -12.7850 C   0  0  0  0  0  0  0  0  0  0  0  0
   21.5200  -23.6580  -13.2420 N   0  0  0  0  0  0  0  0  0  0  0  0
   21.9720  -24.9100  -12.8120 C   0  0  0  0  0  0  0  0  0  0  0  0
   23.0420  -24.9970  -11.9260 C   0  0  0  0  0  0  0  0  0  0  0  0
   23.6630  -23.8430  -11.4620 C   0  0  0  0  0  0  0  0  0  0  0  0
   21.7760  -21.3890  -13.1850 O   0  0  0  0  0  0  0  0  0  0  0  0
   21.3790  -26.0130  -13.2640 N   0  0  0  0  0  0  0  0  0  0  0  0
   23.8230  -21.3460  -11.3580 C   0  0  1  0  0  0  0  0  0  0  0  0
   23.3110  -20.9330   -9.9770 C   0  0  0  0  0  0  0  0  0  0  0  0
   24.2640  -19.7570   -9.7660 C   0  0  0  0  0  0  0  0  0  0  0  0
   25.5920  -20.3400  -10.2600 C   0  0  2  0  0  0  0  0  0  0  0  0
   25.2390  -21.4670  -11.1450 O   0  0  0  0  0  0  0  0  0  0  0  0
   26.4100  -20.8890   -9.0890 C   0  0  0  0  0  0  0  0  0  0  0  0
   25.5440  -21.2970   -8.0280 O   0  0  0  0  0  0  0  0  0  0  0  0
   25.4950  -22.8270   -7.6170 P   0  0  0  0  0  0  0  0  0  0  0  0
   25.8800  -23.6370   -8.8160 O   0  0  0  0  0  0  0  0  0  0  0  0
   26.2820  -23.0230   -6.3780 O   0  0  0  0  0  0  0  0  0  0  0  0
  1  2  1  0  0  0  0
  1  6  1  0  0  0  0
  2  7  2  0  0  0  0
  2  3  1  0  0  0  0
  3  4  2  0  0  0  0
  4  8  1  0  0  0  0
  4  5  1  0  0  0  0
  5  6  2  0  0  0  0
  9  1  1  1  0  0  0
  9 13  1  0  0  0  0
  9 10  1  0  0  0  0
 10 11  1  0  0  0  0
 11 12  1  0  0  0  0
 12 13  1  0  0  0  0
 12 14  1  1  0  0  0
 14 15  1  0  0  0  0
 15 16  1  0  0  0  0
 16 17  2  0  0  0  0
 16 18  2  0  0  0  0
M  END
>  <COMPND>
    UNNAMED

>  <AUTHOR>
    GENERATED BY OPEN BABEL 2.4.90

>  <MASTER>
        0    0    0    0    0    0    0    0   18    0   18    0

