__4rua_A_rec_1s0o_ttp_lig_docked.pdb
 OpenBabel10191908413D

 29 30  0  0  1  0  0  0  0  0999 V2000
   21.7520  -11.8250   -7.8790 O   0  0  0  0  0  0  0  0  0  0  0  0
   22.9390  -12.4290   -7.0340 P   0  0  1  0  0  0  0  0  0  0  0  0
   22.1140  -13.4010   -6.7700 O   0  0  0  0  0  0  0  0  0  0  0  0
   23.8920  -12.8740   -8.1970 O   0  0  0  0  0  0  0  0  0  0  0  0
   22.8390  -10.7950   -6.5570 O   0  0  0  0  0  0  0  0  0  0  0  0
   21.8950  -10.6350   -5.2150 P   0  0  2  0  0  0  0  0  0  0  0  0
   20.6970  -11.6330   -5.3020 O   0  0  0  0  0  0  0  0  0  0  0  0
   21.3000   -9.1930   -5.1590 O   0  0  0  0  0  0  0  0  0  0  0  0
   22.8160  -10.4600   -3.9210 O   0  0  0  0  0  0  0  0  0  0  0  0
   24.2740  -10.6850   -3.3360 P   0  0  0  0  0  0  0  0  0  0  0  0
   24.0050   -9.5910   -2.2700 O   0  0  0  0  0  0  0  0  0  0  0  0
   25.4120  -10.2040   -4.3240 O   0  0  0  0  0  0  0  0  0  0  0  0
   24.5760  -12.0010   -2.5320 O   0  0  0  0  0  0  0  0  0  0  0  0
   21.9300  -10.7110   -9.0540 C   0  0  0  0  0  0  0  0  0  0  0  0
   20.6830   -9.9220   -9.4310 C   0  0  1  0  0  0  0  0  0  0  0  0
   19.8020  -10.5400  -10.3760 O   0  0  0  0  0  0  0  0  0  0  0  0
   19.8350   -9.4880   -8.1970 C   0  0  1  0  0  0  0  0  0  0  0  0
   20.1380   -8.1350   -7.8770 O   0  0  0  0  0  0  0  0  0  0  0  0
   18.4040   -9.7300   -8.5820 C   0  0  0  0  0  0  0  0  0  0  0  0
   18.4760  -10.4860   -9.8890 C   0  0  2  0  0  0  0  0  0  0  0  0
   17.8750  -11.8540   -9.4500 N   0  0  0  0  0  0  0  0  0  0  0  0
   16.5580  -12.1760   -9.7780 C   0  0  0  0  0  0  0  0  0  0  0  0
   15.8680  -11.3810  -10.4320 O   0  0  0  0  0  0  0  0  0  0  0  0
   15.9480  -13.3300   -9.4190 N   0  0  0  0  0  0  0  0  0  0  0  0
   16.6110  -14.2770   -8.6820 C   0  0  0  0  0  0  0  0  0  0  0  0
   15.9110  -15.3670   -8.3830 O   0  0  0  0  0  0  0  0  0  0  0  0
   18.0040  -14.0800   -8.2930 C   0  0  0  0  0  0  0  0  0  0  0  0
   18.5090  -14.7470   -7.7580 C   0  0  0  0  0  0  0  0  0  0  0  0
   18.5690  -12.8310   -8.7040 C   0  0  0  0  0  0  0  0  0  0  0  0
  1 14  1  0  0  0  0
  1  2  1  0  0  0  0
  2  3  2  1  0  0  0
  2  4  1  0  0  0  0
  2  5  1  0  0  0  0
  5  6  1  0  0  0  0
  6  8  2  6  0  0  0
  6  9  1  0  0  0  0
  6  7  1  0  0  0  0
  9 10  1  0  0  0  0
 10 11  2  0  0  0  0
 10 13  1  0  0  0  0
 10 12  1  0  0  0  0
 15 14  1  1  0  0  0
 15 16  1  0  0  0  0
 15 17  1  0  0  0  0
 16 20  1  0  0  0  0
 17 19  1  0  0  0  0
 17 18  1  6  0  0  0
 20 19  1  1  0  0  0
 20 21  1  0  0  0  0
 21 22  1  0  0  0  0
 21 29  1  0  0  0  0
 22 23  2  0  0  0  0
 22 24  1  0  0  0  0
 24 25  1  0  0  0  0
 25 26  2  0  0  0  0
 25 27  1  0  0  0  0
 27 29  1  0  0  0  0
 27 28  2  0  0  0  0
M  END
>  <MODEL>
       2

>  <COMPND>
    UNNAMED

>  <AUTHOR>
    GENERATED BY OPEN BABEL 2.4.90

>  <MASTER>
        0    0    0    0    0    0    0    0   29    0   29    0

