__4rzr_A_rec_1s0m_bap_lig_min.pdb
 OpenBabel10181921483D

 23 27  0  0  1  0  0  0  0  0999 V2000
   18.1070  -16.4950   -7.4550 C   0  0  0  0  0  0  0  0  0  0  0  0
   18.4460  -15.2120   -8.0000 C   0  0  0  0  0  0  0  0  0  0  0  0
   17.4300  -14.3900   -8.5950 C   0  0  0  0  0  0  0  0  0  0  0  0
   16.0670  -14.8470   -8.6490 C   0  0  0  0  0  0  0  0  0  0  0  0
   15.0520  -14.0450   -9.2370 C   0  0  0  0  0  0  0  0  0  0  0  0
   13.7110  -14.5140   -9.2910 C   0  0  0  0  0  0  0  0  0  0  0  0
   13.3140  -15.8110   -8.7600 C   0  0  0  0  0  0  0  0  0  0  0  0
   11.9190  -16.3280   -8.8110 C   0  0  0  0  0  0  0  0  0  0  0  0
   11.6460  -17.6170   -8.2450 C   0  0  0  0  0  0  0  0  0  0  0  0
   12.6990  -18.3820   -7.6580 C   0  0  0  0  0  0  0  0  0  0  0  0
   14.0330  -17.9110   -7.6100 C   0  0  0  0  0  0  0  0  0  0  0  0
   15.0590  -18.7160   -7.0150 C   0  0  0  0  0  0  0  0  0  0  0  0
   16.4130  -18.2520   -6.9610 C   0  0  0  0  0  0  0  0  0  0  0  0
   16.7540  -16.9720   -7.5010 C   0  0  0  0  0  0  0  0  0  0  0  0
   15.7220  -16.1500   -8.1030 C   0  0  0  0  0  0  0  0  0  0  0  0
   14.3530  -16.6220   -8.1540 C   0  0  0  0  0  0  0  0  0  0  0  0
   10.2530  -18.2450   -8.2260 C   0  0  1  0  0  0  0  0  0  0  0  0
    9.8620  -18.5270   -6.8820 O   0  0  0  0  0  0  0  0  0  0  0  0
    9.1190  -17.3960   -8.8410 C   0  0  2  0  0  0  0  0  0  0  0  0
    8.0740  -18.2200   -9.3520 O   0  0  0  0  0  0  0  0  0  0  0  0
    9.5720  -16.4520   -9.9700 C   0  0  2  0  0  0  0  0  0  0  0  0
    9.9330  -17.2090  -11.1440 O   0  0  0  0  0  0  0  0  0  0  0  0
   10.7460  -15.5270   -9.4670 C   0  0  0  0  0  0  0  0  0  0  0  0
  1  2  2  0  0  0  0
  1 14  1  0  0  0  0
  2  3  1  0  0  0  0
  3  4  2  0  0  0  0
  4  5  1  0  0  0  0
  4 15  1  0  0  0  0
  5  6  2  0  0  0  0
  6  7  1  0  0  0  0
  7  8  2  0  0  0  0
  7 16  1  0  0  0  0
  8 23  1  0  0  0  0
  8  9  1  0  0  0  0
  9 17  1  0  0  0  0
  9 10  2  0  0  0  0
 10 11  1  0  0  0  0
 11 16  2  0  0  0  0
 11 12  1  0  0  0  0
 12 13  2  0  0  0  0
 13 14  1  0  0  0  0
 14 15  2  0  0  0  0
 15 16  1  0  0  0  0
 17 19  1  0  0  0  0
 17 18  1  1  0  0  0
 19 21  1  0  0  0  0
 19 20  1  6  0  0  0
 21 22  1  6  0  0  0
 21 23  1  0  0  0  0
M  END
>  <COMPND>
    UNNAMED

>  <AUTHOR>
    GENERATED BY OPEN BABEL 2.4.90

>  <MASTER>
        0    0    0    0    0    0    0    0   23    0   23    0

