__4ga8_A_rec_4gab_fid_lig_docked.pdb
 OpenBabel10171922053D

 20 22  0  0  1  0  0  0  0  0999 V2000
  -13.2960   32.1860    2.6570 C   0  0  0  0  0  0  0  0  0  0  0  0
  -14.4290   31.4540    2.5520 N   0  0  0  0  0  0  0  0  0  0  0  0
  -15.1790   32.0880    3.4690 C   0  0  0  0  0  0  0  0  0  0  0  0
  -14.5490   33.2790    4.1250 C   0  0  1  0  0  0  0  0  0  0  0  0
  -15.2410   34.5320    3.6310 C   0  0  0  0  0  0  0  0  0  0  0  0
  -15.1170   34.9040    2.2870 C   0  0  0  0  0  0  0  0  0  0  0  0
  -15.7480   36.0520    1.8240 C   0  0  0  0  0  0  0  0  0  0  0  0
  -15.6290   36.4100    0.5340 F   0  0  0  0  0  0  0  0  0  0  0  0
  -16.5010   36.8480    2.6770 C   0  0  0  0  0  0  0  0  0  0  0  0
  -16.6260   36.4820    4.0120 C   0  0  0  0  0  0  0  0  0  0  0  0
  -15.9990   35.3340    4.4770 C   0  0  0  0  0  0  0  0  0  0  0  0
  -16.1430   35.0110    5.7870 O   0  0  0  0  0  0  0  0  0  0  0  0
  -15.9000   33.6760    6.1980 C   0  0  1  0  0  0  0  0  0  0  0  0
  -14.5430   33.2270    5.6590 C   0  0  0  0  0  0  0  0  0  0  0  0
  -13.2250   33.2240    3.5260 N   0  0  0  0  0  0  0  0  0  0  0  0
  -16.5400   31.6820    3.7350 O   0  0  0  0  0  0  0  0  0  0  0  0
  -12.1500   31.8570    1.8300 O   0  0  0  0  0  0  0  0  0  0  0  0
  -15.9640   33.6350    7.6880 C   0  0  0  0  0  0  0  0  0  0  0  0
  -16.0280   32.4210    8.2450 N   0  0  0  0  0  0  0  0  0  0  0  0
  -15.9310   34.6820    8.3190 O   0  0  0  0  0  0  0  0  0  0  0  0
  1 17  2  0  0  0  0
  1  2  2  0  0  0  0
  1 15  1  0  0  0  0
  2  3  1  0  0  0  0
  3 16  2  0  0  0  0
  3  4  1  0  0  0  0
  4 15  1  0  0  0  0
  4  5  1  0  0  0  0
  4 14  1  1  0  0  0
  5  6  2  0  0  0  0
  5 11  1  0  0  0  0
  6  7  1  0  0  0  0
  7  8  1  0  0  0  0
  7  9  2  0  0  0  0
  9 10  1  0  0  0  0
 10 11  2  0  0  0  0
 11 12  1  0  0  0  0
 12 13  1  0  0  0  0
 13 14  1  0  0  0  0
 13 18  1  1  0  0  0
 18 20  2  0  0  0  0
 18 19  1  0  0  0  0
M  END
>  <MODEL>
      10

>  <COMPND>
    UNNAMED

>  <AUTHOR>
    GENERATED BY OPEN BABEL 2.4.90

>  <MASTER>
        0    0    0    0    0    0    0    0   20    0   20    0

