__4gab_A_rec_4gab_fid_lig_docked.pdb
 OpenBabel10171922363D

 20 22  0  0  1  0  0  0  0  0999 V2000
  -14.6080   32.9180    3.2530 C   0  0  0  0  0  0  0  0  0  0  0  0
  -15.8960   32.5080    3.2810 N   0  0  0  0  0  0  0  0  0  0  0  0
  -16.3450   33.2820    4.2840 C   0  0  0  0  0  0  0  0  0  0  0  0
  -15.3560   34.2450    4.8650 C   0  0  1  0  0  0  0  0  0  0  0  0
  -15.7480   35.6510    4.4620 C   0  0  0  0  0  0  0  0  0  0  0  0
  -15.6850   36.0260    3.1150 C   0  0  0  0  0  0  0  0  0  0  0  0
  -16.0430   37.3130    2.7350 C   0  0  0  0  0  0  0  0  0  0  0  0
  -15.9820   37.6740    1.4420 F   0  0  0  0  0  0  0  0  0  0  0  0
  -16.4590   38.2470    3.6750 C   0  0  0  0  0  0  0  0  0  0  0  0
  -16.5220   37.8790    5.0140 C   0  0  0  0  0  0  0  0  0  0  0  0
  -16.1680   36.5920    5.3960 C   0  0  0  0  0  0  0  0  0  0  0  0
  -16.2410   36.2710    6.7120 O   0  0  0  0  0  0  0  0  0  0  0  0
  -16.3100   34.9060    7.0860 C   0  0  1  0  0  0  0  0  0  0  0  0
  -15.1880   34.1390    6.3860 C   0  0  0  0  0  0  0  0  0  0  0  0
  -14.1680   33.8710    4.1120 N   0  0  0  0  0  0  0  0  0  0  0  0
  -17.7260   33.2330    4.7080 O   0  0  0  0  0  0  0  0  0  0  0  0
  -13.6890   32.3330    2.2930 O   0  0  0  0  0  0  0  0  0  0  0  0
  -16.2130   34.8300    8.5720 C   0  0  0  0  0  0  0  0  0  0  0  0
  -16.7730   35.8330    9.2550 N   0  0  0  0  0  0  0  0  0  0  0  0
  -15.6620   33.8670    9.0890 O   0  0  0  0  0  0  0  0  0  0  0  0
  1 17  2  0  0  0  0
  1  2  2  0  0  0  0
  1 15  1  0  0  0  0
  2  3  1  0  0  0  0
  3 16  2  0  0  0  0
  3  4  1  0  0  0  0
  4 15  1  0  0  0  0
  4  5  1  0  0  0  0
  4 14  1  1  0  0  0
  5  6  2  0  0  0  0
  5 11  1  0  0  0  0
  6  7  1  0  0  0  0
  7  8  1  0  0  0  0
  7  9  2  0  0  0  0
  9 10  1  0  0  0  0
 10 11  2  0  0  0  0
 11 12  1  0  0  0  0
 12 13  1  0  0  0  0
 13 14  1  0  0  0  0
 13 18  1  1  0  0  0
 18 20  2  0  0  0  0
 18 19  1  0  0  0  0
M  END
>  <MODEL>
       2

>  <COMPND>
    UNNAMED

>  <AUTHOR>
    GENERATED BY OPEN BABEL 2.4.90

>  <MASTER>
        0    0    0    0    0    0    0    0   20    0   20    0

