__4gab_A_rec_4gab_fid_lig_min.pdb
 OpenBabel10171921083D

 20 22  0  0  1  0  0  0  0  0999 V2000
  -14.6000   32.8940    3.2610 C   0  0  0  0  0  0  0  0  0  0  0  0
  -15.8890   32.4860    3.2870 N   0  0  0  0  0  0  0  0  0  0  0  0
  -16.3390   33.2610    4.2890 C   0  0  0  0  0  0  0  0  0  0  0  0
  -15.3480   34.2230    4.8720 C   0  0  1  0  0  0  0  0  0  0  0  0
  -15.7380   35.6290    4.4690 C   0  0  0  0  0  0  0  0  0  0  0  0
  -15.6720   36.0040    3.1220 C   0  0  0  0  0  0  0  0  0  0  0  0
  -16.0270   37.2920    2.7420 C   0  0  0  0  0  0  0  0  0  0  0  0
  -15.9630   37.6530    1.4490 F   0  0  0  0  0  0  0  0  0  0  0  0
  -16.4430   38.2260    3.6820 C   0  0  0  0  0  0  0  0  0  0  0  0
  -16.5100   37.8580    5.0200 C   0  0  0  0  0  0  0  0  0  0  0  0
  -16.1580   36.5700    5.4030 C   0  0  0  0  0  0  0  0  0  0  0  0
  -16.2340   36.2490    6.7190 O   0  0  0  0  0  0  0  0  0  0  0  0
  -16.3060   34.8840    7.0920 C   0  0  1  0  0  0  0  0  0  0  0  0
  -15.1840   34.1160    6.3940 C   0  0  0  0  0  0  0  0  0  0  0  0
  -14.1610   33.8470    4.1220 N   0  0  0  0  0  0  0  0  0  0  0  0
  -17.7200   33.2140    4.7110 O   0  0  0  0  0  0  0  0  0  0  0  0
  -13.6810   32.3070    2.3030 O   0  0  0  0  0  0  0  0  0  0  0  0
  -16.2110   34.8070    8.5780 C   0  0  0  0  0  0  0  0  0  0  0  0
  -16.7750   35.8090    9.2610 N   0  0  0  0  0  0  0  0  0  0  0  0
  -15.6590   33.8460    9.0950 O   0  0  0  0  0  0  0  0  0  0  0  0
  1 17  2  0  0  0  0
  1  2  2  0  0  0  0
  1 15  1  0  0  0  0
  2  3  1  0  0  0  0
  3 16  2  0  0  0  0
  3  4  1  0  0  0  0
  4 15  1  0  0  0  0
  4  5  1  0  0  0  0
  4 14  1  1  0  0  0
  5  6  2  0  0  0  0
  5 11  1  0  0  0  0
  6  7  1  0  0  0  0
  7  8  1  0  0  0  0
  7  9  2  0  0  0  0
  9 10  1  0  0  0  0
 10 11  2  0  0  0  0
 11 12  1  0  0  0  0
 12 13  1  0  0  0  0
 13 14  1  0  0  0  0
 13 18  1  1  0  0  0
 18 20  2  0  0  0  0
 18 19  1  0  0  0  0
M  END
>  <COMPND>
    UNNAMED

>  <AUTHOR>
    GENERATED BY OPEN BABEL 2.4.90

>  <MASTER>
        0    0    0    0    0    0    0    0   20    0   20    0

