__4gq0_A_rec_4jih_epr_lig_min.pdb
 OpenBabel10171921043D

 13 13  0  0  1  0  0  0  0  0999 V2000
  -16.0660   34.5810    4.8460 N   0  0  0  0  0  0  0  0  0  0  0  0
  -15.1220   36.6380    4.9400 O   0  0  0  0  0  0  0  0  0  0  0  0
  -17.5220   32.2690    4.8370 S   0  0  0  0  0  0  0  0  0  0  0  0
  -18.5680   35.1150    5.5150 S   0  0  0  0  0  0  0  0  0  0  0  0
  -17.4820   36.4630    5.4790 C   0  0  1  0  0  0  0  0  0  0  0  0
  -16.1570   35.9070    5.0760 C   0  0  0  0  0  0  0  0  0  0  0  0
  -17.2810   34.0210    5.0470 C   0  0  0  0  0  0  0  0  0  0  0  0
  -17.4000   38.8220    6.7400 C   0  0  0  0  0  0  0  0  0  0  0  0
  -17.9760   37.8450    5.7470 C   0  0  0  0  0  0  0  0  0  0  0  0
  -14.8650   33.8290    4.4660 C   0  0  0  0  0  0  0  0  0  0  0  0
  -15.1040   34.6020    2.2670 O   0  0  0  0  0  0  0  0  0  0  0  0
  -14.7210   32.4730    2.4370 O   0  0  0  0  0  0  0  0  0  0  0  0
  -14.8940   33.5980    2.9640 C   0  0  0  0  0  0  0  0  0  0  0  0
  1 10  1  0  0  0  0
  1  7  1  0  0  0  0
  1  6  1  0  0  0  0
  2  6  2  0  0  0  0
  3  7  2  0  0  0  0
  4  7  1  0  0  0  0
  4  5  1  0  0  0  0
  5  6  1  0  0  0  0
  5  9  1  6  0  0  0
  8  9  1  0  0  0  0
 10 13  1  0  0  0  0
 11 13  2  0  0  0  0
 12 13  1  0  0  0  0
M  END
>  <COMPND>
    UNNAMED

>  <AUTHOR>
    GENERATED BY OPEN BABEL 2.4.90

>  <MASTER>
        0    0    0    0    0    0    0    0   13    0   13    0

