__4jii_X_rec_4jii_zst_lig_docked.pdb
 OpenBabel10171922083D

 29 32  0  0  0  0  0  0  0  0999 V2000
  -16.8960   36.0070    5.8020 C   0  0  0  0  0  0  0  0  0  0  0  0
  -17.1520   36.8860    6.6010 O   0  0  0  0  0  0  0  0  0  0  0  0
  -16.5980   36.2680    4.3900 C   0  0  0  0  0  0  0  0  0  0  0  0
  -16.3280   35.2090    3.5070 C   0  0  0  0  0  0  0  0  0  0  0  0
  -16.3110   33.8550    4.0890 C   0  0  0  0  0  0  0  0  0  0  0  0
  -16.6070   37.5780    3.9140 C   0  0  0  0  0  0  0  0  0  0  0  0
  -16.3750   37.8290    2.5730 C   0  0  0  0  0  0  0  0  0  0  0  0
  -16.1300   36.7860    1.7000 C   0  0  0  0  0  0  0  0  0  0  0  0
  -16.1060   35.4830    2.1600 C   0  0  0  0  0  0  0  0  0  0  0  0
  -16.8900   34.6210    6.1790 N   0  0  0  0  0  0  0  0  0  0  0  0
  -16.5760   33.5960    5.3230 N   0  0  0  0  0  0  0  0  0  0  0  0
  -17.3660   34.1720    7.4720 C   0  0  0  0  0  0  0  0  0  0  0  0
  -18.6200   33.3680    7.2470 C   0  0  0  0  0  0  0  0  0  0  0  0
  -20.6810   32.3790    6.4020 C   0  0  0  0  0  0  0  0  0  0  0  0
  -20.2550   31.9420    7.6620 C   0  0  0  0  0  0  0  0  0  0  0  0
  -21.8460   31.8730    5.8250 C   0  0  0  0  0  0  0  0  0  0  0  0
  -22.5630   30.9090    6.5120 C   0  0  0  0  0  0  0  0  0  0  0  0
  -22.1390   30.4410    7.7520 C   0  0  0  0  0  0  0  0  0  0  0  0
  -20.9960   30.9780    8.3370 C   0  0  0  0  0  0  0  0  0  0  0  0
  -19.0700   32.5280    8.1140 N   0  0  0  0  0  0  0  0  0  0  0  0
  -19.5530   33.5490    5.7840 S   0  0  0  0  0  0  0  0  0  0  0  0
  -22.8300   29.2840    8.4030 C   0  0  0  0  0  0  0  0  0  0  0  0
  -24.1130   29.5820    8.7450 F   0  0  0  0  0  0  0  0  0  0  0  0
  -22.9050   28.2090    7.5730 F   0  0  0  0  0  0  0  0  0  0  0  0
  -22.1990   28.8810    9.5210 F   0  0  0  0  0  0  0  0  0  0  0  0
  -15.8940   32.6810    3.2310 C   0  0  0  0  0  0  0  0  0  0  0  0
  -14.4100   32.4160    3.2260 C   0  0  0  0  0  0  0  0  0  0  0  0
  -13.8190   31.9710    2.2470 O   0  0  0  0  0  0  0  0  0  0  0  0
  -13.8200   32.7040    4.3510 O   0  0  0  0  0  0  0  0  0  0  0  0
  1  3  1  0  0  0  0
  1 10  1  0  0  0  0
  1  2  2  0  0  0  0
  3  4  2  0  0  0  0
  3  6  1  0  0  0  0
  4  9  1  0  0  0  0
  4  5  1  0  0  0  0
  5 26  1  0  0  0  0
  5 11  2  0  0  0  0
  6  7  2  0  0  0  0
  7  8  1  0  0  0  0
  8  9  2  0  0  0  0
 10 11  1  0  0  0  0
 10 12  1  0  0  0  0
 12 13  1  0  0  0  0
 13 21  1  0  0  0  0
 13 20  2  0  0  0  0
 14 16  2  0  0  0  0
 14 21  1  0  0  0  0
 14 15  1  0  0  0  0
 15 20  1  0  0  0  0
 15 19  2  0  0  0  0
 16 17  1  0  0  0  0
 17 18  2  0  0  0  0
 18 22  1  0  0  0  0
 18 19  1  0  0  0  0
 22 23  1  0  0  0  0
 22 25  1  0  0  0  0
 22 24  1  0  0  0  0
 26 27  1  0  0  0  0
 27 28  2  0  0  0  0
 27 29  1  0  0  0  0
M  END
>  <MODEL>
       1

>  <COMPND>
    UNNAMED

>  <AUTHOR>
    GENERATED BY OPEN BABEL 2.4.90

>  <MASTER>
        0    0    0    0    0    0    0    0   29    0   29    0

