__4wev_X_rec_4xzl_f49_lig_docked.pdb
 OpenBabel10171921533D

 25 26  0  0  0  0  0  0  0  0999 V2000
  -16.3870   34.7020    6.6930 O   0  0  0  0  0  0  0  0  0  0  0  0
  -16.4400   35.4540    5.7360 C   0  0  0  0  0  0  0  0  0  0  0  0
  -15.8370   35.1680    4.5300 N   0  0  0  0  0  0  0  0  0  0  0  0
  -15.9060   36.0200    3.4670 C   0  0  0  0  0  0  0  0  0  0  0  0
  -16.5530   37.1920    3.5390 C   0  0  0  0  0  0  0  0  0  0  0  0
  -17.2120   37.5790    4.7430 C   0  0  0  0  0  0  0  0  0  0  0  0
  -17.8450   38.6200    4.9010 O   0  0  0  0  0  0  0  0  0  0  0  0
  -17.1190   36.6610    5.8000 N   0  0  0  0  0  0  0  0  0  0  0  0
  -15.0760   33.9250    4.4200 C   0  0  0  0  0  0  0  0  0  0  0  0
  -15.6050   33.0320    3.3260 C   0  0  0  0  0  0  0  0  0  0  0  0
  -14.7480   32.8670    2.3600 O   0  0  0  0  0  0  0  0  0  0  0  0
  -16.7160   32.5290    3.3470 O   0  0  0  0  0  0  0  0  0  0  0  0
  -17.8070   36.9920    7.0490 C   0  0  0  0  0  0  0  0  0  0  0  0
  -19.1780   37.4620    7.2100 C   0  0  0  0  0  0  0  0  0  0  0  0
  -19.7170   38.6080    7.8590 C   0  0  0  0  0  0  0  0  0  0  0  0
  -21.0930   38.8320    7.9570 C   0  0  0  0  0  0  0  0  0  0  0  0
  -21.7820   40.3070    8.8810 Br  0  0  0  0  0  0  0  0  0  0  0  0
  -21.9970   37.9300    7.3940 C   0  0  0  0  0  0  0  0  0  0  0  0
  -23.8450   38.2550    7.5380 Br  0  0  0  0  0  0  0  0  0  0  0  0
  -21.4940   36.8460    6.7740 C   0  0  0  0  0  0  0  0  0  0  0  0
  -22.6770   35.5880    6.0220 Br  0  0  0  0  0  0  0  0  0  0  0  0
  -20.1470   36.5920    6.6680 C   0  0  0  0  0  0  0  0  0  0  0  0
  -19.7200   34.9700    5.7670 Br  0  0  0  0  0  0  0  0  0  0  0  0
  -18.9260   39.5490    8.4040 O   0  0  0  0  0  0  0  0  0  0  0  0
  -18.3860   40.6060    7.5740 C   0  0  0  0  0  0  0  0  0  0  0  0
  1  2  2  0  0  0  0
  2  3  1  0  0  0  0
  2  8  1  0  0  0  0
  3  4  1  0  0  0  0
  3  9  1  0  0  0  0
  4  5  2  0  0  0  0
  5  6  1  0  0  0  0
  6  7  2  0  0  0  0
  6  8  1  0  0  0  0
  8 13  1  0  0  0  0
  9 10  1  0  0  0  0
 10 11  2  0  0  0  0
 10 12  1  0  0  0  0
 13 14  1  0  0  0  0
 14 22  2  0  0  0  0
 14 15  1  0  0  0  0
 15 16  2  0  0  0  0
 15 24  1  0  0  0  0
 16 18  1  0  0  0  0
 16 17  1  0  0  0  0
 18 20  2  0  0  0  0
 18 19  1  0  0  0  0
 20 21  1  0  0  0  0
 20 22  1  0  0  0  0
 22 23  1  0  0  0  0
 24 25  1  0  0  0  0
M  END
>  <MODEL>
      16

>  <COMPND>
    UNNAMED

>  <AUTHOR>
    GENERATED BY OPEN BABEL 2.4.90

>  <MASTER>
        0    0    0    0    0    0    0    0   25    0   25    0

