__4xzl_X_rec_4gab_fid_lig_min.pdb
 OpenBabel10171921423D

 20 22  0  0  1  0  0  0  0  0999 V2000
  -13.3560   32.1960    2.6950 C   0  0  0  0  0  0  0  0  0  0  0  0
  -14.3930   31.3320    2.6090 N   0  0  0  0  0  0  0  0  0  0  0  0
  -15.2230   31.9060    3.4970 C   0  0  0  0  0  0  0  0  0  0  0  0
  -14.7450   33.1860    4.1130 C   0  0  1  0  0  0  0  0  0  0  0  0
  -15.5740   34.3300    3.5680 C   0  0  0  0  0  0  0  0  0  0  0  0
  -15.4790   34.6660    2.2130 C   0  0  0  0  0  0  0  0  0  0  0  0
  -16.2350   35.7140    1.7030 C   0  0  0  0  0  0  0  0  0  0  0  0
  -16.1440   36.0380    0.4020 F   0  0  0  0  0  0  0  0  0  0  0  0
  -17.0860   36.4460    2.5210 C   0  0  0  0  0  0  0  0  0  0  0  0
  -17.1830   36.1160    3.8670 C   0  0  0  0  0  0  0  0  0  0  0  0
  -16.4300   35.0670    4.3790 C   0  0  0  0  0  0  0  0  0  0  0  0
  -16.5500   34.7760    5.6990 O   0  0  0  0  0  0  0  0  0  0  0  0
  -16.1570   33.4950    6.1600 C   0  0  1  0  0  0  0  0  0  0  0  0
  -14.7500   33.1890    5.6480 C   0  0  0  0  0  0  0  0  0  0  0  0
  -13.4170   33.2660    3.5260 N   0  0  0  0  0  0  0  0  0  0  0  0
  -16.5300   31.3520    3.7680 O   0  0  0  0  0  0  0  0  0  0  0  0
  -12.1690   31.9750    1.8890 O   0  0  0  0  0  0  0  0  0  0  0  0
  -16.2330   33.4990    7.6500 C   0  0  0  0  0  0  0  0  0  0  0  0
  -16.4580   34.6830    8.2290 N   0  0  0  0  0  0  0  0  0  0  0  0
  -16.1130   32.4450    8.2600 O   0  0  0  0  0  0  0  0  0  0  0  0
  1 17  2  0  0  0  0
  1  2  2  0  0  0  0
  1 15  1  0  0  0  0
  2  3  1  0  0  0  0
  3 16  2  0  0  0  0
  3  4  1  0  0  0  0
  4 15  1  0  0  0  0
  4  5  1  0  0  0  0
  4 14  1  1  0  0  0
  5  6  2  0  0  0  0
  5 11  1  0  0  0  0
  6  7  1  0  0  0  0
  7  8  1  0  0  0  0
  7  9  2  0  0  0  0
  9 10  1  0  0  0  0
 10 11  2  0  0  0  0
 11 12  1  0  0  0  0
 12 13  1  0  0  0  0
 13 14  1  0  0  0  0
 13 18  1  1  0  0  0
 18 20  2  0  0  0  0
 18 19  1  0  0  0  0
M  END
>  <COMPND>
    UNNAMED

>  <AUTHOR>
    GENERATED BY OPEN BABEL 2.4.90

>  <MASTER>
        0    0    0    0    0    0    0    0   20    0   20    0

