__5liu_X_rec_4gab_fid_lig_docked.pdb
 OpenBabel10171922003D

 20 22  0  0  1  0  0  0  0  0999 V2000
  -13.5810   32.6390    2.7220 C   0  0  0  0  0  0  0  0  0  0  0  0
  -14.6830   31.8770    2.5390 N   0  0  0  0  0  0  0  0  0  0  0  0
  -15.5240   32.5120    3.3720 C   0  0  0  0  0  0  0  0  0  0  0  0
  -14.9810   33.7340    4.0500 C   0  0  1  0  0  0  0  0  0  0  0  0
  -15.6560   34.9570    3.4660 C   0  0  0  0  0  0  0  0  0  0  0  0
  -15.4250   35.3010    2.1300 C   0  0  0  0  0  0  0  0  0  0  0  0
  -16.0410   36.4220    1.5850 C   0  0  0  0  0  0  0  0  0  0  0  0
  -15.8190   36.7530    0.3010 F   0  0  0  0  0  0  0  0  0  0  0  0
  -16.8830   37.2180    2.3500 C   0  0  0  0  0  0  0  0  0  0  0  0
  -17.1140   36.8800    3.6780 C   0  0  0  0  0  0  0  0  0  0  0  0
  -16.5030   35.7590    4.2240 C   0  0  0  0  0  0  0  0  0  0  0  0
  -16.7520   35.4620    5.5240 O   0  0  0  0  0  0  0  0  0  0  0  0
  -16.5150   34.1450    5.9880 C   0  0  1  0  0  0  0  0  0  0  0  0
  -15.1060   33.7170    5.5790 C   0  0  0  0  0  0  0  0  0  0  0  0
  -13.6090   33.6990    3.5680 N   0  0  0  0  0  0  0  0  0  0  0  0
  -16.8930   32.0780    3.5300 O   0  0  0  0  0  0  0  0  0  0  0  0
  -12.3600   32.3200    2.0050 O   0  0  0  0  0  0  0  0  0  0  0  0
  -16.7060   34.1360    7.4670 C   0  0  0  0  0  0  0  0  0  0  0  0
  -17.7290   34.8570    7.9370 N   0  0  0  0  0  0  0  0  0  0  0  0
  -15.9560   33.4670    8.1650 O   0  0  0  0  0  0  0  0  0  0  0  0
  1 17  2  0  0  0  0
  1  2  2  0  0  0  0
  1 15  1  0  0  0  0
  2  3  1  0  0  0  0
  3 16  2  0  0  0  0
  3  4  1  0  0  0  0
  4 15  1  0  0  0  0
  4  5  1  0  0  0  0
  4 14  1  1  0  0  0
  5  6  2  0  0  0  0
  5 11  1  0  0  0  0
  6  7  1  0  0  0  0
  7  8  1  0  0  0  0
  7  9  2  0  0  0  0
  9 10  1  0  0  0  0
 10 11  2  0  0  0  0
 11 12  1  0  0  0  0
 12 13  1  0  0  0  0
 13 14  1  0  0  0  0
 13 18  1  1  0  0  0
 18 20  2  0  0  0  0
 18 19  1  0  0  0  0
M  END
>  <MODEL>
       4

>  <COMPND>
    UNNAMED

>  <AUTHOR>
    GENERATED BY OPEN BABEL 2.4.90

>  <MASTER>
        0    0    0    0    0    0    0    0   20    0   20    0

