__5liw_X_rec_4ga8_sbi_lig_docked.pdb
 OpenBabel10171922333D

 17 19  0  0  1  0  0  0  0  0999 V2000
  -16.0140   36.5740    1.5870 C   0  0  0  0  0  0  0  0  0  0  0  0
  -16.1390   36.7010    0.2470 F   0  0  0  0  0  0  0  0  0  0  0  0
  -16.4430   37.6060    2.4100 C   0  0  0  0  0  0  0  0  0  0  0  0
  -16.3210   37.4890    3.7940 C   0  0  0  0  0  0  0  0  0  0  0  0
  -15.7570   36.3460    4.3530 C   0  0  0  0  0  0  0  0  0  0  0  0
  -15.5010   36.3120    5.6900 O   0  0  0  0  0  0  0  0  0  0  0  0
  -15.5120   35.0480    6.3440 C   0  0  0  0  0  0  0  0  0  0  0  0
  -14.5290   34.1190    5.6480 C   0  0  0  0  0  0  0  0  0  0  0  0
  -14.6810   34.0650    4.1170 C   0  0  2  0  0  0  0  0  0  0  0  0
  -15.3740   32.8190    3.6340 C   0  0  0  0  0  0  0  0  0  0  0  0
  -16.7400   32.5030    4.0110 O   0  0  0  0  0  0  0  0  0  0  0  0
  -14.6560   32.0370    2.8070 N   0  0  0  0  0  0  0  0  0  0  0  0
  -13.5020   32.7380    2.7650 C   0  0  0  0  0  0  0  0  0  0  0  0
  -12.3700   32.2600    1.9620 O   0  0  0  0  0  0  0  0  0  0  0  0
  -13.3900   33.8860    3.4780 N   0  0  0  0  0  0  0  0  0  0  0  0
  -15.3190   35.3080    3.5390 C   0  0  0  0  0  0  0  0  0  0  0  0
  -15.4560   35.4240    2.1520 C   0  0  0  0  0  0  0  0  0  0  0  0
  1  2  1  0  0  0  0
  1 17  2  0  0  0  0
  1  3  1  0  0  0  0
  3  4  2  0  0  0  0
  4  5  1  0  0  0  0
  5 16  2  0  0  0  0
  5  6  1  0  0  0  0
  6  7  1  0  0  0  0
  7  8  1  0  0  0  0
  9  8  1  1  0  0  0
  9 10  1  0  0  0  0
  9 15  1  0  0  0  0
  9 16  1  0  0  0  0
 10 12  1  0  0  0  0
 10 11  2  0  0  0  0
 12 13  2  0  0  0  0
 13 14  2  0  0  0  0
 13 15  1  0  0  0  0
 16 17  1  0  0  0  0
M  END
>  <MODEL>
      13

>  <COMPND>
    UNNAMED

>  <AUTHOR>
    GENERATED BY OPEN BABEL 2.4.90

>  <MASTER>
        0    0    0    0    0    0    0    0   17    0   17    0

