__1fta_A_rec_3kc1_2t6_lig_docked.pdb
 OpenBabel10181923313D

 21 23  0  0  0  0  0  0  0  0999 V2000
   12.5030    2.0410   32.8730 C   0  0  0  0  0  0  0  0  0  0  0  0
   12.5900    0.7040   32.5650 C   0  0  0  0  0  0  0  0  0  0  0  0
   11.8000   -0.2360   33.1640 C   0  0  0  0  0  0  0  0  0  0  0  0
   10.8670    0.1890   34.1320 C   0  0  0  0  0  0  0  0  0  0  0  0
   10.7640    1.5510   34.4600 C   0  0  0  0  0  0  0  0  0  0  0  0
   11.5920    2.4910   33.8240 C   0  0  0  0  0  0  0  0  0  0  0  0
   13.5140    2.8870   32.0460 C   0  0  0  0  0  0  0  0  0  0  0  0
   14.1070    1.7250   31.2750 C   0  0  0  0  0  0  0  0  0  0  0  0
   13.6060    0.5280   31.5560 C   0  0  0  0  0  0  0  0  0  0  0  0
   15.3010    1.6190   30.1020 S   0  0  0  0  0  0  0  0  0  0  0  0
   15.1020   -0.0820   30.0060 C   0  0  0  0  0  0  0  0  0  0  0  0
   14.1250   -0.5510   30.8700 N   0  0  0  0  0  0  0  0  0  0  0  0
   11.4950    3.9130   34.1570 C   0  0  0  0  0  0  0  0  0  0  0  0
   12.3410    4.3190   35.1230 N   0  0  0  0  0  0  0  0  0  0  0  0
   10.7050    4.6850   33.6220 O   0  0  0  0  0  0  0  0  0  0  0  0
   11.9310   -1.5650   32.8130 O   0  0  0  0  0  0  0  0  0  0  0  0
   10.6760   -2.1980   32.8380 C   0  0  0  0  0  0  0  0  0  0  0  0
    9.9990   -4.2970   31.2780 O   0  0  0  0  0  0  0  0  0  0  0  0
   10.8710   -3.9570   32.4450 P   0  0  0  0  0  0  0  0  0  0  0  0
   12.2990   -4.2480   32.1020 O   0  0  0  0  0  0  0  0  0  0  0  0
   10.4630   -4.7710   33.6360 O   0  0  0  0  0  0  0  0  0  0  0  0
  1  7  2  0  0  0  0
  1  2  1  0  0  0  0
  1  6  1  0  0  0  0
  2  9  1  0  0  0  0
  2  3  2  0  0  0  0
  3 16  1  0  0  0  0
  3  4  1  0  0  0  0
  4  5  1  0  0  0  0
  5  6  2  0  0  0  0
  6 13  1  0  0  0  0
  7  8  1  0  0  0  0
  8 10  1  0  0  0  0
  8  9  2  0  0  0  0
  9 12  1  0  0  0  0
 10 11  1  0  0  0  0
 11 12  2  0  0  0  0
 13 15  2  0  0  0  0
 13 14  1  0  0  0  0
 16 17  1  0  0  0  0
 17 19  1  0  0  0  0
 18 19  2  0  0  0  0
 19 21  1  0  0  0  0
 19 20  1  0  0  0  0
M  END
>  <MODEL>
       4

>  <COMPND>
    UNNAMED

>  <AUTHOR>
    GENERATED BY OPEN BABEL 2.4.90

>  <MASTER>
        0    0    0    0    0    0    0    0   21    0   21    0

