__2fie_D_rec_3kc0_2t5_lig_docked.pdb
 OpenBabel10181923513D

 18 20  0  0  0  0  0  0  0  0999 V2000
   11.3350   -0.0480   34.0360 C   0  0  0  0  0  0  0  0  0  0  0  0
   12.1800    0.6960   33.2640 C   0  0  0  0  0  0  0  0  0  0  0  0
   12.1700    2.0660   33.3660 C   0  0  0  0  0  0  0  0  0  0  0  0
   11.3180    2.7220   34.2400 C   0  0  0  0  0  0  0  0  0  0  0  0
   10.4580    1.9700   35.0260 C   0  0  0  0  0  0  0  0  0  0  0  0
   10.4640    0.5790   34.9250 C   0  0  0  0  0  0  0  0  0  0  0  0
   13.1930    2.7690   32.4160 C   0  0  0  0  0  0  0  0  0  0  0  0
   13.7260    1.4860   31.8070 C   0  0  0  0  0  0  0  0  0  0  0  0
   13.1850    0.3720   32.2590 C   0  0  0  0  0  0  0  0  0  0  0  0
   14.9410    1.0860   30.5900 S   0  0  0  0  0  0  0  0  0  0  0  0
   14.5710   -0.6250   30.8330 C   0  0  0  0  0  0  0  0  0  0  0  0
   13.6070   -0.8370   31.7610 N   0  0  0  0  0  0  0  0  0  0  0  0
   11.3790   -1.4230   33.8990 O   0  0  0  0  0  0  0  0  0  0  0  0
   10.4120   -1.8740   32.9980 C   0  0  0  0  0  0  0  0  0  0  0  0
   10.6590   -3.6560   32.7640 P   0  0  0  0  0  0  0  0  0  0  0  0
   10.1530   -4.0720   31.4120 O   0  0  0  0  0  0  0  0  0  0  0  0
    9.9070   -4.3980   33.8250 O   0  0  0  0  0  0  0  0  0  0  0  0
   12.1180   -3.9770   32.8840 O   0  0  0  0  0  0  0  0  0  0  0  0
  1  2  2  0  0  0  0
  1 13  1  0  0  0  0
  1  6  1  0  0  0  0
  2  9  1  0  0  0  0
  2  3  1  0  0  0  0
  3  7  2  0  0  0  0
  3  4  1  0  0  0  0
  4  5  2  0  0  0  0
  5  6  1  0  0  0  0
  7  8  1  0  0  0  0
  8 10  1  0  0  0  0
  8  9  2  0  0  0  0
  9 12  1  0  0  0  0
 10 11  1  0  0  0  0
 11 12  2  0  0  0  0
 13 14  1  0  0  0  0
 14 15  1  0  0  0  0
 15 18  2  0  0  0  0
 15 17  1  0  0  0  0
 15 16  1  0  0  0  0
M  END
>  <MODEL>
       2

>  <COMPND>
    UNNAMED

>  <AUTHOR>
    GENERATED BY OPEN BABEL 2.4.90

>  <MASTER>
        0    0    0    0    0    0    0    0   18    0   18    0

