__2fie_D_rec_3kc1_2t6_lig_docked.pdb
 OpenBabel10181923513D

 21 23  0  0  0  0  0  0  0  0999 V2000
   12.6850    2.1410   33.0020 C   0  0  0  0  0  0  0  0  0  0  0  0
   12.7040    0.7800   32.8050 C   0  0  0  0  0  0  0  0  0  0  0  0
   11.8740   -0.0670   33.4830 C   0  0  0  0  0  0  0  0  0  0  0  0
   10.9710    0.4810   34.4160 C   0  0  0  0  0  0  0  0  0  0  0  0
   10.9360    1.8680   34.6310 C   0  0  0  0  0  0  0  0  0  0  0  0
   11.8040    2.7110   33.9160 C   0  0  0  0  0  0  0  0  0  0  0  0
   13.7280    2.8660   32.1040 C   0  0  0  0  0  0  0  0  0  0  0  0
   14.2580    1.6170   31.4290 C   0  0  0  0  0  0  0  0  0  0  0  0
   13.7020    0.4730   31.8100 C   0  0  0  0  0  0  0  0  0  0  0  0
   15.4360    1.3560   30.2630 S   0  0  0  0  0  0  0  0  0  0  0  0
   15.1550   -0.3350   30.3080 C   0  0  0  0  0  0  0  0  0  0  0  0
   14.1630   -0.6830   31.2130 N   0  0  0  0  0  0  0  0  0  0  0  0
   11.7780    4.1590   34.1320 C   0  0  0  0  0  0  0  0  0  0  0  0
   12.5540    4.5860   35.1460 N   0  0  0  0  0  0  0  0  0  0  0  0
   11.1020    4.9350   33.4640 O   0  0  0  0  0  0  0  0  0  0  0  0
   11.9380   -1.4260   33.2420 O   0  0  0  0  0  0  0  0  0  0  0  0
   10.7140   -1.8830   32.7230 C   0  0  0  0  0  0  0  0  0  0  0  0
   12.1070   -4.1910   32.8840 O   0  0  0  0  0  0  0  0  0  0  0  0
   10.7130   -3.6940   32.6670 P   0  0  0  0  0  0  0  0  0  0  0  0
    9.8170   -4.2380   33.7360 O   0  0  0  0  0  0  0  0  0  0  0  0
   10.2200   -4.1400   31.3230 O   0  0  0  0  0  0  0  0  0  0  0  0
  1  7  2  0  0  0  0
  1  2  1  0  0  0  0
  1  6  1  0  0  0  0
  2  9  1  0  0  0  0
  2  3  2  0  0  0  0
  3 16  1  0  0  0  0
  3  4  1  0  0  0  0
  4  5  1  0  0  0  0
  5  6  2  0  0  0  0
  6 13  1  0  0  0  0
  7  8  1  0  0  0  0
  8 10  1  0  0  0  0
  8  9  2  0  0  0  0
  9 12  1  0  0  0  0
 10 11  1  0  0  0  0
 11 12  2  0  0  0  0
 13 15  2  0  0  0  0
 13 14  1  0  0  0  0
 16 17  1  0  0  0  0
 17 19  1  0  0  0  0
 18 19  2  0  0  0  0
 19 21  1  0  0  0  0
 19 20  1  0  0  0  0
M  END
>  <MODEL>
       4

>  <COMPND>
    UNNAMED

>  <AUTHOR>
    GENERATED BY OPEN BABEL 2.4.90

>  <MASTER>
        0    0    0    0    0    0    0    0   21    0   21    0

