__2jjk_A_rec_3kc0_2t5_lig_docked.pdb
 OpenBabel10181923283D

 18 20  0  0  0  0  0  0  0  0999 V2000
   11.3930   -0.0770   33.8620 C   0  0  0  0  0  0  0  0  0  0  0  0
   12.2190    0.6890   33.0930 C   0  0  0  0  0  0  0  0  0  0  0  0
   12.1410    2.0600   33.1660 C   0  0  0  0  0  0  0  0  0  0  0  0
   11.2380    2.6920   34.0040 C   0  0  0  0  0  0  0  0  0  0  0  0
   10.3970    1.9160   34.7870 C   0  0  0  0  0  0  0  0  0  0  0  0
   10.4720    0.5250   34.7170 C   0  0  0  0  0  0  0  0  0  0  0  0
   13.1520    2.7910   32.2240 C   0  0  0  0  0  0  0  0  0  0  0  0
   13.7600    1.5240   31.6560 C   0  0  0  0  0  0  0  0  0  0  0  0
   13.2630    0.3940   32.1190 C   0  0  0  0  0  0  0  0  0  0  0  0
   15.0210    1.1570   30.4760 S   0  0  0  0  0  0  0  0  0  0  0  0
   14.7290   -0.5650   30.7490 C   0  0  0  0  0  0  0  0  0  0  0  0
   13.7540   -0.8030   31.6590 N   0  0  0  0  0  0  0  0  0  0  0  0
   11.5060   -1.4510   33.7570 O   0  0  0  0  0  0  0  0  0  0  0  0
   10.6300   -1.9600   32.7960 C   0  0  0  0  0  0  0  0  0  0  0  0
   11.0570   -3.7030   32.5220 P   0  0  0  0  0  0  0  0  0  0  0  0
   10.5610   -4.5390   33.6670 O   0  0  0  0  0  0  0  0  0  0  0  0
   12.5440   -3.8320   32.4200 O   0  0  0  0  0  0  0  0  0  0  0  0
   10.4350   -4.1720   31.2410 O   0  0  0  0  0  0  0  0  0  0  0  0
  1  2  2  0  0  0  0
  1 13  1  0  0  0  0
  1  6  1  0  0  0  0
  2  9  1  0  0  0  0
  2  3  1  0  0  0  0
  3  7  2  0  0  0  0
  3  4  1  0  0  0  0
  4  5  2  0  0  0  0
  5  6  1  0  0  0  0
  7  8  1  0  0  0  0
  8 10  1  0  0  0  0
  8  9  2  0  0  0  0
  9 12  1  0  0  0  0
 10 11  1  0  0  0  0
 11 12  2  0  0  0  0
 13 14  1  0  0  0  0
 14 15  1  0  0  0  0
 15 18  2  0  0  0  0
 15 17  1  0  0  0  0
 15 16  1  0  0  0  0
M  END
>  <MODEL>
       2

>  <COMPND>
    UNNAMED

>  <AUTHOR>
    GENERATED BY OPEN BABEL 2.4.90

>  <MASTER>
        0    0    0    0    0    0    0    0   18    0   18    0

