__2jjk_A_rec_3kc1_2t6_lig_docked.pdb
 OpenBabel10181923283D

 21 23  0  0  0  0  0  0  0  0999 V2000
   12.2080    2.1110   33.0120 C   0  0  0  0  0  0  0  0  0  0  0  0
   12.3320    0.7450   32.9160 C   0  0  0  0  0  0  0  0  0  0  0  0
   11.5600   -0.1110   33.6510 C   0  0  0  0  0  0  0  0  0  0  0  0
   10.6080    0.4350   34.5360 C   0  0  0  0  0  0  0  0  0  0  0  0
   10.4670    1.8280   34.6470 C   0  0  0  0  0  0  0  0  0  0  0  0
   11.2780    2.6790   33.8770 C   0  0  0  0  0  0  0  0  0  0  0  0
   13.2050    2.8450   32.0690 C   0  0  0  0  0  0  0  0  0  0  0  0
   13.8340    1.5930   31.4900 C   0  0  0  0  0  0  0  0  0  0  0  0
   13.3610    0.4420   31.9520 C   0  0  0  0  0  0  0  0  0  0  0  0
   15.0410    1.3370   30.3540 S   0  0  0  0  0  0  0  0  0  0  0  0
   14.8860   -0.3630   30.5230 C   0  0  0  0  0  0  0  0  0  0  0  0
   13.9130   -0.7170   31.4450 N   0  0  0  0  0  0  0  0  0  0  0  0
   11.1410    4.1330   33.9840 C   0  0  0  0  0  0  0  0  0  0  0  0
   10.2260    4.6680   33.1530 N   0  0  0  0  0  0  0  0  0  0  0  0
   11.8040    4.8250   34.7490 O   0  0  0  0  0  0  0  0  0  0  0  0
   11.7290   -1.4750   33.5110 O   0  0  0  0  0  0  0  0  0  0  0  0
   10.7000   -2.0100   32.7140 C   0  0  0  0  0  0  0  0  0  0  0  0
   10.3920   -4.5400   33.6070 O   0  0  0  0  0  0  0  0  0  0  0  0
   10.9830   -3.7820   32.4620 P   0  0  0  0  0  0  0  0  0  0  0  0
   10.3400   -4.2250   31.1850 O   0  0  0  0  0  0  0  0  0  0  0  0
   12.4590   -4.0350   32.3950 O   0  0  0  0  0  0  0  0  0  0  0  0
  1  7  2  0  0  0  0
  1  2  1  0  0  0  0
  1  6  1  0  0  0  0
  2  9  1  0  0  0  0
  2  3  2  0  0  0  0
  3 16  1  0  0  0  0
  3  4  1  0  0  0  0
  4  5  1  0  0  0  0
  5  6  2  0  0  0  0
  6 13  1  0  0  0  0
  7  8  1  0  0  0  0
  8 10  1  0  0  0  0
  8  9  2  0  0  0  0
  9 12  1  0  0  0  0
 10 11  1  0  0  0  0
 11 12  2  0  0  0  0
 13 15  2  0  0  0  0
 13 14  1  0  0  0  0
 16 17  1  0  0  0  0
 17 19  1  0  0  0  0
 18 19  2  0  0  0  0
 19 21  1  0  0  0  0
 19 20  1  0  0  0  0
M  END
>  <MODEL>
       2

>  <COMPND>
    UNNAMED

>  <AUTHOR>
    GENERATED BY OPEN BABEL 2.4.90

>  <MASTER>
        0    0    0    0    0    0    0    0   21    0   21    0

