__2vt5_A_rec_3kbz_2t4_lig_min.pdb
 OpenBabel10181922533D

 19 21  0  0  0  0  0  0  0  0999 V2000
   10.7990   -0.1220   33.4090 C   0  0  0  0  0  0  0  0  0  0  0  0
    9.7610    0.1560   34.3190 C   0  0  0  0  0  0  0  0  0  0  0  0
    9.7010    1.4080   34.9660 C   0  0  0  0  0  0  0  0  0  0  0  0
   10.6800    2.3790   34.7000 C   0  0  0  0  0  0  0  0  0  0  0  0
   11.6900    2.0710   33.7950 C   0  0  0  0  0  0  0  0  0  0  0  0
   11.7310    0.8440   33.1770 C   0  0  0  0  0  0  0  0  0  0  0  0
   12.8670    2.9770   33.3460 C   0  0  0  0  0  0  0  0  0  0  0  0
   13.4910    1.9690   32.3950 C   0  0  0  0  0  0  0  0  0  0  0  0
   12.8720    0.8070   32.3040 C   0  0  0  0  0  0  0  0  0  0  0  0
   14.8380    2.0060   31.4020 S   0  0  0  0  0  0  0  0  0  0  0  0
   14.5470    0.4030   30.8610 C   0  0  0  0  0  0  0  0  0  0  0  0
   13.4130   -0.1330   31.4540 N   0  0  0  0  0  0  0  0  0  0  0  0
   15.3950   -0.3030   29.8940 N   0  0  0  0  0  0  0  0  0  0  0  0
   10.9010   -1.3350   32.7460 O   0  0  0  0  0  0  0  0  0  0  0  0
   10.4280   -2.3850   33.5520 C   0  0  0  0  0  0  0  0  0  0  0  0
   10.8140   -3.9740   32.7640 P   0  0  0  0  0  0  0  0  0  0  0  0
   10.3050   -5.1050   33.6070 O   0  0  0  0  0  0  0  0  0  0  0  0
   10.1640   -4.0270   31.4160 O   0  0  0  0  0  0  0  0  0  0  0  0
   12.2970   -4.0920   32.6100 O   0  0  0  0  0  0  0  0  0  0  0  0
  1  6  2  0  0  0  0
  1 14  1  0  0  0  0
  1  2  1  0  0  0  0
  2  3  1  0  0  0  0
  3  4  2  0  0  0  0
  4  5  1  0  0  0  0
  5  7  2  0  0  0  0
  5  6  1  0  0  0  0
  6  9  1  0  0  0  0
  7  8  1  0  0  0  0
  8 10  1  0  0  0  0
  8  9  2  0  0  0  0
  9 12  1  0  0  0  0
 10 11  1  0  0  0  0
 11 13  1  0  0  0  0
 11 12  2  0  0  0  0
 14 15  1  0  0  0  0
 15 16  1  0  0  0  0
 16 18  2  0  0  0  0
 16 19  1  0  0  0  0
 16 17  1  0  0  0  0
M  END
>  <COMPND>
    UNNAMED

>  <AUTHOR>
    GENERATED BY OPEN BABEL 2.4.90

>  <MASTER>
        0    0    0    0    0    0    0    0   19    0   19    0

