__2wbb_A_rec_2fhy_a37_lig_docked.pdb
 OpenBabel10181923233D

 22 24  0  0  0  0  0  0  0  0999 V2000
   14.5170   -3.1890   33.3240 N   0  0  0  0  0  0  0  0  0  0  0  0
   15.7850   -3.9900   33.1220 C   0  0  0  0  0  0  0  0  0  0  0  0
   16.8020   -3.6900   32.2330 N   0  0  0  0  0  0  0  0  0  0  0  0
   17.8080   -4.6860   32.3660 C   0  0  0  0  0  0  0  0  0  0  0  0
   19.0780   -4.9110   31.7450 C   0  0  0  0  0  0  0  0  0  0  0  0
   19.8550   -6.0600   32.1450 C   0  0  0  0  0  0  0  0  0  0  0  0
   21.3970   -6.3510   31.4070 Cl  0  0  0  0  0  0  0  0  0  0  0  0
   19.3810   -6.9710   33.1480 C   0  0  0  0  0  0  0  0  0  0  0  0
   18.1050   -6.7440   33.7850 C   0  0  0  0  0  0  0  0  0  0  0  0
   17.3200   -5.6170   33.4110 C   0  0  0  0  0  0  0  0  0  0  0  0
   16.0740   -5.1500   33.8430 O   0  0  0  0  0  0  0  0  0  0  0  0
   13.4860   -2.6770   32.0560 S   0  0  0  0  0  0  0  0  0  0  0  0
   14.0430   -3.1750   30.7530 O   0  0  0  0  0  0  0  0  0  0  0  0
   12.0830   -3.1700   32.4340 O   0  0  0  0  0  0  0  0  0  0  0  0
   12.6600    1.3160   32.6930 C   0  0  0  0  0  0  0  0  0  0  0  0
   13.5640    1.9820   31.7800 C   0  0  0  0  0  0  0  0  0  0  0  0
   14.4080    1.1910   30.9740 C   0  0  0  0  0  0  0  0  0  0  0  0
   14.3780   -0.2620   31.0590 C   0  0  0  0  0  0  0  0  0  0  0  0
   13.4730   -0.9070   31.9830 C   0  0  0  0  0  0  0  0  0  0  0  0
   12.6250   -0.1280   32.7870 C   0  0  0  0  0  0  0  0  0  0  0  0
   15.4780    1.9780   29.8790 Cl  0  0  0  0  0  0  0  0  0  0  0  0
   11.5110   -0.8680   33.9180 Cl  0  0  0  0  0  0  0  0  0  0  0  0
  1 12  1  0  0  0  0
  1  2  1  0  0  0  0
  2  3  2  0  0  0  0
  2 11  1  0  0  0  0
  3  4  1  0  0  0  0
  4  5  2  0  0  0  0
  4 10  1  0  0  0  0
  5  6  1  0  0  0  0
  6  7  1  0  0  0  0
  6  8  2  0  0  0  0
  8  9  1  0  0  0  0
  9 10  2  0  0  0  0
 10 11  1  0  0  0  0
 12 13  2  0  0  0  0
 12 19  1  0  0  0  0
 12 14  2  0  0  0  0
 15 16  2  0  0  0  0
 15 20  1  0  0  0  0
 16 17  1  0  0  0  0
 17 21  1  0  0  0  0
 17 18  2  0  0  0  0
 18 19  1  0  0  0  0
 19 20  2  0  0  0  0
 20 22  1  0  0  0  0
M  END
>  <MODEL>
       1

>  <COMPND>
    UNNAMED

>  <AUTHOR>
    GENERATED BY OPEN BABEL 2.4.90

>  <MASTER>
        0    0    0    0    0    0    0    0   22    0   22    0

