__2wbb_A_rec_2y5l_ro8_lig_min.pdb
 OpenBabel10181923023D

 20 21  0  0  0  0  0  0  0  0999 V2000
   15.6530   -3.8810   33.6740 N   0  0  0  0  0  0  0  0  0  0  0  0
   13.8290   -2.5850   33.3390 N   0  0  0  0  0  0  0  0  0  0  0  0
   14.7760   -3.3610   32.7970 C   0  0  0  0  0  0  0  0  0  0  0  0
   14.8480   -3.5470   31.5910 O   0  0  0  0  0  0  0  0  0  0  0  0
   18.0720   -4.1110   32.5850 S   0  0  0  0  0  0  0  0  0  0  0  0
   16.6830   -4.7020   33.4280 C   0  0  0  0  0  0  0  0  0  0  0  0
   16.6960   -6.0340   33.7120 N   0  0  0  0  0  0  0  0  0  0  0  0
   17.8500   -6.5860   33.2760 C   0  0  0  0  0  0  0  0  0  0  0  0
   18.6710   -5.6940   32.6720 C   0  0  0  0  0  0  0  0  0  0  0  0
   20.3980   -6.0640   31.9340 Br  0  0  0  0  0  0  0  0  0  0  0  0
   12.6750   -1.9020   32.6140 S   0  0  0  0  0  0  0  0  0  0  0  0
   12.4900   -2.5760   31.3670 O   0  0  0  0  0  0  0  0  0  0  0  0
   11.4490   -2.0950   33.3420 O   0  0  0  0  0  0  0  0  0  0  0  0
   15.5890    1.9350   30.2650 Cl  0  0  0  0  0  0  0  0  0  0  0  0
   12.9270   -0.2480   32.3250 C   0  0  0  0  0  0  0  0  0  0  0  0
   13.9980    0.1230   31.5320 C   0  0  0  0  0  0  0  0  0  0  0  0
   12.0720    0.7070   32.8580 C   0  0  0  0  0  0  0  0  0  0  0  0
   14.2110    1.4700   31.2820 C   0  0  0  0  0  0  0  0  0  0  0  0
   12.2940    2.0560   32.5990 C   0  0  0  0  0  0  0  0  0  0  0  0
   13.3670    2.4470   31.8050 C   0  0  0  0  0  0  0  0  0  0  0  0
  1  3  1  0  0  0  0
  1  6  1  0  0  0  0
  2 11  1  0  0  0  0
  2  3  1  0  0  0  0
  3  4  2  0  0  0  0
  5  9  1  0  0  0  0
  5  6  1  0  0  0  0
  6  7  2  0  0  0  0
  7  8  1  0  0  0  0
  8  9  2  0  0  0  0
  9 10  1  0  0  0  0
 11 12  2  0  0  0  0
 11 15  1  0  0  0  0
 11 13  2  0  0  0  0
 14 18  1  0  0  0  0
 15 16  2  0  0  0  0
 15 17  1  0  0  0  0
 16 18  1  0  0  0  0
 17 19  2  0  0  0  0
 18 20  2  0  0  0  0
 19 20  1  0  0  0  0
M  END
>  <COMPND>
    UNNAMED

>  <AUTHOR>
    GENERATED BY OPEN BABEL 2.4.90

>  <MASTER>
        0    0    0    0    0    0    0    0   20    0   20    0

