__2wbb_A_rec_2wbd_ro5_lig_min.pdb
 OpenBabel10181922493D

 21 22  0  0  0  0  0  0  0  0999 V2000
   15.5130   -3.8210   32.8030 C   0  0  0  0  0  0  0  0  0  0  0  0
   15.7670   -3.7720   31.6200 O   0  0  0  0  0  0  0  0  0  0  0  0
   16.3180   -4.3110   33.7390 N   0  0  0  0  0  0  0  0  0  0  0  0
   14.3990   -3.3390   33.2940 N   0  0  0  0  0  0  0  0  0  0  0  0
   17.4710   -4.8950   33.4810 C   0  0  0  0  0  0  0  0  0  0  0  0
   19.1040   -6.4670   33.6320 C   0  0  0  0  0  0  0  0  0  0  0  0
   19.6940   -5.8420   32.5850 C   0  0  0  0  0  0  0  0  0  0  0  0
   21.3280   -6.2900   31.7170 Br  0  0  0  0  0  0  0  0  0  0  0  0
   18.6120   -4.5350   32.2170 S   0  0  0  0  0  0  0  0  0  0  0  0
   17.9780   -5.9850   34.0620 N   0  0  0  0  0  0  0  0  0  0  0  0
   11.9910   -3.1810   33.1170 O   0  0  0  0  0  0  0  0  0  0  0  0
   13.1010   -3.1710   31.1450 O   0  0  0  0  0  0  0  0  0  0  0  0
   13.1430   -2.6620   32.4800 S   0  0  0  0  0  0  0  0  0  0  0  0
   12.6890    1.3450   33.0790 C   0  0  0  0  0  0  0  0  0  0  0  0
   12.5810   -0.0450   33.2600 C   0  0  0  0  0  0  0  0  0  0  0  0
   13.4170    1.8550   31.9980 C   0  0  0  0  0  0  0  0  0  0  0  0
   13.9250   -0.4060   31.2930 C   0  0  0  0  0  0  0  0  0  0  0  0
   13.2100   -0.9100   32.3660 C   0  0  0  0  0  0  0  0  0  0  0  0
   14.0310    0.9620   31.1010 C   0  0  0  0  0  0  0  0  0  0  0  0
   14.8150    1.4210   29.8980 C   0  0  0  0  0  0  0  0  0  0  0  0
   15.8850    2.3590   30.3930 C   0  0  0  0  0  0  0  0  0  0  0  0
  1  2  2  0  0  0  0
  1  4  1  0  0  0  0
  1  3  1  0  0  0  0
  3  5  1  0  0  0  0
  4 13  1  0  0  0  0
  5  9  1  0  0  0  0
  5 10  2  0  0  0  0
  6  7  2  0  0  0  0
  6 10  1  0  0  0  0
  7  8  1  0  0  0  0
  7  9  1  0  0  0  0
 11 13  2  0  0  0  0
 12 13  2  0  0  0  0
 13 18  1  0  0  0  0
 14 16  2  0  0  0  0
 14 15  1  0  0  0  0
 15 18  2  0  0  0  0
 16 19  1  0  0  0  0
 17 19  2  0  0  0  0
 17 18  1  0  0  0  0
 19 20  1  0  0  0  0
 20 21  1  0  0  0  0
M  END
>  <COMPND>
    UNNAMED

>  <AUTHOR>
    GENERATED BY OPEN BABEL 2.4.90

>  <MASTER>
        0    0    0    0    0    0    0    0   21    0   21    0

