__2wbb_A_rec_2wbb_ro3_lig_docked.pdb
 OpenBabel10181923233D

 20 21  0  0  0  0  0  0  0  0999 V2000
   15.3490   -3.7010   32.8880 C   0  0  0  0  0  0  0  0  0  0  0  0
   15.6930   -3.7600   31.7230 O   0  0  0  0  0  0  0  0  0  0  0  0
   16.1150   -4.1980   33.8680 N   0  0  0  0  0  0  0  0  0  0  0  0
   14.2100   -3.1180   33.2510 N   0  0  0  0  0  0  0  0  0  0  0  0
   17.2350   -4.8830   33.6280 C   0  0  0  0  0  0  0  0  0  0  0  0
   18.6060   -6.6250   33.7050 C   0  0  0  0  0  0  0  0  0  0  0  0
   19.2040   -5.7720   32.8380 C   0  0  0  0  0  0  0  0  0  0  0  0
   20.8930   -6.2020   31.9970 Br  0  0  0  0  0  0  0  0  0  0  0  0
   18.3730   -4.4430   32.6060 S   0  0  0  0  0  0  0  0  0  0  0  0
   17.4730   -6.0960   34.1240 N   0  0  0  0  0  0  0  0  0  0  0  0
   11.9150   -2.6910   32.9070 O   0  0  0  0  0  0  0  0  0  0  0  0
   13.1440   -3.1790   31.0540 O   0  0  0  0  0  0  0  0  0  0  0  0
   13.1960   -2.4830   32.3030 S   0  0  0  0  0  0  0  0  0  0  0  0
   13.4600    1.3080   32.9360 C   0  0  0  0  0  0  0  0  0  0  0  0
   13.1520   -0.0320   33.0930 C   0  0  0  0  0  0  0  0  0  0  0  0
   14.4890    3.2080   31.6770 C   0  0  0  0  0  0  0  0  0  0  0  0
   14.1660    1.7460   31.8200 C   0  0  0  0  0  0  0  0  0  0  0  0
   14.2360   -0.5110   30.9770 C   0  0  0  0  0  0  0  0  0  0  0  0
   13.5350   -0.9420   32.1070 C   0  0  0  0  0  0  0  0  0  0  0  0
   14.5540    0.8360   30.8330 C   0  0  0  0  0  0  0  0  0  0  0  0
  1  2  2  0  0  0  0
  1  4  1  0  0  0  0
  1  3  1  0  0  0  0
  3  5  1  0  0  0  0
  4 13  1  0  0  0  0
  5  9  1  0  0  0  0
  5 10  2  0  0  0  0
  6  7  2  0  0  0  0
  6 10  1  0  0  0  0
  7  8  1  0  0  0  0
  7  9  1  0  0  0  0
 11 13  2  0  0  0  0
 12 13  2  0  0  0  0
 13 19  1  0  0  0  0
 14 17  2  0  0  0  0
 14 15  1  0  0  0  0
 15 19  2  0  0  0  0
 16 17  1  0  0  0  0
 17 20  1  0  0  0  0
 18 20  2  0  0  0  0
 18 19  1  0  0  0  0
M  END
>  <MODEL>
       1

>  <COMPND>
    UNNAMED

>  <AUTHOR>
    GENERATED BY OPEN BABEL 2.4.90

>  <MASTER>
        0    0    0    0    0    0    0    0   20    0   20    0

