__2wbb_A_rec_4mjo_2c1_lig_min.pdb
 OpenBabel10181922473D

 29 30  0  0  0  0  0  0  0  0999 V2000
   14.4870   -3.1560   33.1370 N   0  0  0  0  0  0  0  0  0  0  0  0
   15.5780   -3.8240   32.8100 C   0  0  0  0  0  0  0  0  0  0  0  0
   16.1230   -4.3990   33.8510 N   0  0  0  0  0  0  0  0  0  0  0  0
   15.9910   -3.8910   31.6730 O   0  0  0  0  0  0  0  0  0  0  0  0
   17.2200   -5.1680   33.9510 C   0  0  0  0  0  0  0  0  0  0  0  0
   18.3990   -6.5980   35.3650 C   0  0  0  0  0  0  0  0  0  0  0  0
   18.1350   -5.3870   32.9100 C   0  0  0  0  0  0  0  0  0  0  0  0
   17.3580   -5.7830   35.1420 N   0  0  0  0  0  4  0  0  0  0  0  0
   19.3350   -6.8240   34.3530 C   0  0  0  0  0  0  0  0  0  0  0  0
   19.2410   -6.2280   33.0880 C   0  0  0  0  0  0  0  0  0  0  0  0
   20.5510   -6.5530   31.6860 Br  0  0  0  0  0  0  0  0  0  0  0  0
   18.5910   -7.2220   36.5540 N   0  0  0  0  0  0  0  0  0  0  0  0
   15.3430   -8.5850   37.7170 C   0  0  0  0  0  0  0  0  0  0  0  0
   17.7030   -7.8540   37.3280 C   0  0  0  0  0  0  0  0  0  0  0  0
   18.1000   -8.3650   38.3580 O   0  0  0  0  0  0  0  0  0  0  0  0
   16.4150   -7.9340   36.9870 N   0  0  0  0  0  0  0  0  0  0  0  0
   13.5510   -2.4290   32.1780 S   0  0  0  0  0  0  0  0  0  0  0  0
   12.2650   -2.7280   32.7100 O   0  0  0  0  0  0  0  0  0  0  0  0
   13.6130   -3.1200   30.9060 O   0  0  0  0  0  0  0  0  0  0  0  0
   14.3990   -0.2890   31.0100 C   0  0  0  0  0  0  0  0  0  0  0  0
   13.7800    1.4560   32.1370 C   0  0  0  0  0  0  0  0  0  0  0  0
   14.5000    0.9960   31.1320 C   0  0  0  0  0  0  0  0  0  0  0  0
   13.7410   -0.8550   31.9780 C   0  0  0  0  0  0  0  0  0  0  0  0
   13.0730    0.2650   33.0210 S   0  0  0  0  0  0  0  0  0  0  0  0
   15.3680    1.8630   30.2320 C   0  0  0  0  0  0  0  0  0  0  0  0
   13.5350    2.8740   32.5310 C   0  0  0  0  0  0  0  0  0  0  0  0
   12.0300    3.1250   32.6020 C   0  0  0  0  0  0  0  0  0  0  0  0
   11.6940    3.7480   31.3660 O   0  0  0  0  0  0  0  0  0  0  0  0
   10.8830    4.9160   31.5210 C   0  0  0  0  0  0  0  0  0  0  0  0
  1 17  1  0  0  0  0
  1  2  1  0  0  0  0
  2  4  2  0  0  0  0
  2  3  1  0  0  0  0
  3  5  1  0  0  0  0
  5  7  1  0  0  0  0
  5  8  2  0  0  0  0
  6  9  1  0  0  0  0
  6  8  2  0  0  0  0
  6 12  1  0  0  0  0
  7 10  1  0  0  0  0
  9 10  2  0  0  0  0
 10 11  1  0  0  0  0
 12 14  1  0  0  0  0
 13 16  1  0  0  0  0
 14 16  1  0  0  0  0
 14 15  2  0  0  0  0
 17 19  2  0  0  0  0
 17 23  1  0  0  0  0
 17 18  2  0  0  0  0
 20 22  1  0  0  0  0
 20 23  2  0  0  0  0
 21 22  2  0  0  0  0
 21 26  1  0  0  0  0
 21 24  1  0  0  0  0
 22 25  1  0  0  0  0
 23 24  1  0  0  0  0
 26 27  1  0  0  0  0
 27 28  1  0  0  0  0
 28 29  1  0  0  0  0
M  END
>  <COMPND>
    UNNAMED

>  <AUTHOR>
    GENERATED BY OPEN BABEL 2.4.90

>  <MASTER>
        0    0    0    0    0    0    0    0   29    0   29    0

