__2wbd_B_rec_3kbz_2t4_lig_min.pdb
 OpenBabel10181923063D

 19 21  0  0  0  0  0  0  0  0999 V2000
   10.6970    0.0570   33.0970 C   0  0  0  0  0  0  0  0  0  0  0  0
    9.5380    0.2780   33.8660 C   0  0  0  0  0  0  0  0  0  0  0  0
    9.2860    1.5510   34.4200 C   0  0  0  0  0  0  0  0  0  0  0  0
   10.1950    2.6000   34.2010 C   0  0  0  0  0  0  0  0  0  0  0  0
   11.3280    2.3460   33.4360 C   0  0  0  0  0  0  0  0  0  0  0  0
   11.5550    1.0980   32.9070 C   0  0  0  0  0  0  0  0  0  0  0  0
   12.4580    3.3400   33.0620 C   0  0  0  0  0  0  0  0  0  0  0  0
   13.2810    2.3500   32.2540 C   0  0  0  0  0  0  0  0  0  0  0  0
   12.7890    1.1280   32.1710 C   0  0  0  0  0  0  0  0  0  0  0  0
   14.7260    2.4690   31.4170 S   0  0  0  0  0  0  0  0  0  0  0  0
   14.6510    0.8170   30.9530 C   0  0  0  0  0  0  0  0  0  0  0  0
   13.5110    0.2030   31.4500 N   0  0  0  0  0  0  0  0  0  0  0  0
   15.6690    0.1490   30.1340 N   0  0  0  0  0  0  0  0  0  0  0  0
   10.9890   -1.1730   32.5310 O   0  0  0  0  0  0  0  0  0  0  0  0
   10.7990   -2.2100   33.4620 C   0  0  0  0  0  0  0  0  0  0  0  0
   10.9330   -3.8120   32.6210 P   0  0  0  0  0  0  0  0  0  0  0  0
   10.3030   -4.8870   33.4560 O   0  0  0  0  0  0  0  0  0  0  0  0
   10.2360   -3.7360   31.2990 O   0  0  0  0  0  0  0  0  0  0  0  0
   12.3800   -4.1280   32.4070 O   0  0  0  0  0  0  0  0  0  0  0  0
  1  6  2  0  0  0  0
  1 14  1  0  0  0  0
  1  2  1  0  0  0  0
  2  3  1  0  0  0  0
  3  4  2  0  0  0  0
  4  5  1  0  0  0  0
  5  7  2  0  0  0  0
  5  6  1  0  0  0  0
  6  9  1  0  0  0  0
  7  8  1  0  0  0  0
  8 10  1  0  0  0  0
  8  9  2  0  0  0  0
  9 12  1  0  0  0  0
 10 11  1  0  0  0  0
 11 13  1  0  0  0  0
 11 12  2  0  0  0  0
 14 15  1  0  0  0  0
 15 16  1  0  0  0  0
 16 18  2  0  0  0  0
 16 19  1  0  0  0  0
 16 17  1  0  0  0  0
M  END
>  <COMPND>
    UNNAMED

>  <AUTHOR>
    GENERATED BY OPEN BABEL 2.4.90

>  <MASTER>
        0    0    0    0    0    0    0    0   19    0   19    0

