__2wbd_B_rec_2wbd_ro5_lig_docked.pdb
 OpenBabel10181923273D

 21 22  0  0  0  0  0  0  0  0999 V2000
   15.5960   -3.7550   32.8660 C   0  0  0  0  0  0  0  0  0  0  0  0
   15.9840   -3.5490   31.7380 O   0  0  0  0  0  0  0  0  0  0  0  0
   16.3050   -4.3370   33.8260 N   0  0  0  0  0  0  0  0  0  0  0  0
   14.4120   -3.3710   33.2720 N   0  0  0  0  0  0  0  0  0  0  0  0
   17.5040   -4.8510   33.6400 C   0  0  0  0  0  0  0  0  0  0  0  0
   19.2020   -6.3450   33.8620 C   0  0  0  0  0  0  0  0  0  0  0  0
   19.8400   -5.6450   32.8940 C   0  0  0  0  0  0  0  0  0  0  0  0
   21.5600   -5.9720   32.1470 Br  0  0  0  0  0  0  0  0  0  0  0  0
   18.7240   -4.3790   32.4920 S   0  0  0  0  0  0  0  0  0  0  0  0
   18.0200   -5.9390   34.2170 N   0  0  0  0  0  0  0  0  0  0  0  0
   12.0350   -2.9660   33.0750 O   0  0  0  0  0  0  0  0  0  0  0  0
   13.1270   -3.2420   31.1130 O   0  0  0  0  0  0  0  0  0  0  0  0
   13.2330   -2.6310   32.4000 S   0  0  0  0  0  0  0  0  0  0  0  0
   13.3550    1.4300   32.7420 C   0  0  0  0  0  0  0  0  0  0  0  0
   13.1120    0.0780   33.0450 C   0  0  0  0  0  0  0  0  0  0  0  0
   13.9650    1.7750   31.5300 C   0  0  0  0  0  0  0  0  0  0  0  0
   14.0860   -0.5700   30.9400 C   0  0  0  0  0  0  0  0  0  0  0  0
   13.4900   -0.9130   32.1410 C   0  0  0  0  0  0  0  0  0  0  0  0
   14.3240    0.7580   30.6280 C   0  0  0  0  0  0  0  0  0  0  0  0
   14.9640    1.0390   29.2920 C   0  0  0  0  0  0  0  0  0  0  0  0
   16.0210    2.0890   29.5150 C   0  0  0  0  0  0  0  0  0  0  0  0
  1  2  2  0  0  0  0
  1  4  1  0  0  0  0
  1  3  1  0  0  0  0
  3  5  1  0  0  0  0
  4 13  1  0  0  0  0
  5  9  1  0  0  0  0
  5 10  2  0  0  0  0
  6  7  2  0  0  0  0
  6 10  1  0  0  0  0
  7  8  1  0  0  0  0
  7  9  1  0  0  0  0
 11 13  2  0  0  0  0
 12 13  2  0  0  0  0
 13 18  1  0  0  0  0
 14 16  2  0  0  0  0
 14 15  1  0  0  0  0
 15 18  2  0  0  0  0
 16 19  1  0  0  0  0
 17 19  2  0  0  0  0
 17 18  1  0  0  0  0
 19 20  1  0  0  0  0
 20 21  1  0  0  0  0
M  END
>  <MODEL>
       4

>  <COMPND>
    UNNAMED

>  <AUTHOR>
    GENERATED BY OPEN BABEL 2.4.90

>  <MASTER>
        0    0    0    0    0    0    0    0   21    0   21    0

