__2wbd_B_rec_3a29_2t0_lig_min.pdb
 OpenBabel10181922433D

 19 21  0  0  0  0  0  0  0  0999 V2000
   10.5570   -1.4140   33.8650 C   0  0  0  0  0  0  0  0  0  0  0  0
    9.8110   -0.5630   34.6760 C   0  0  0  0  0  0  0  0  0  0  0  0
   10.1320    0.8010   34.7040 C   0  0  0  0  0  0  0  0  0  0  0  0
   11.1880    1.3180   33.9360 C   0  0  0  0  0  0  0  0  0  0  0  0
   11.9190    0.4380   33.1330 C   0  0  0  0  0  0  0  0  0  0  0  0
   11.6010   -0.9110   33.1030 C   0  0  0  0  0  0  0  0  0  0  0  0
   13.2570    2.3250   32.2430 C   0  0  0  0  0  0  0  0  0  0  0  0
   13.0190    0.9590   32.3150 C   0  0  0  0  0  0  0  0  0  0  0  0
   14.5890    2.5860   31.2360 S   0  0  0  0  0  0  0  0  0  0  0  0
   14.7980    0.9340   30.9460 C   0  0  0  0  0  0  0  0  0  0  0  0
   13.8800    0.1800   31.5920 N   0  0  0  0  0  0  0  0  0  0  0  0
   15.8630    0.4220   30.0920 N   0  0  0  0  0  0  0  0  0  0  0  0
   12.4740    3.4220   32.9110 C   0  0  0  0  0  0  0  0  0  0  0  0
   11.5160    2.8280   33.9940 C   0  0  0  0  0  0  0  0  0  0  0  0
   10.2540   -2.8000   33.8150 O   0  0  0  0  0  0  0  0  0  0  0  0
   10.7410   -3.8090   32.7180 P   0  0  0  0  0  0  0  0  0  0  0  0
   12.2640   -3.9980   32.7560 O   0  0  0  0  0  0  0  0  0  0  0  0
   10.0800   -5.1780   32.9420 O   0  0  0  0  0  0  0  0  0  0  0  0
   10.3900   -3.3300   31.2890 O   0  0  0  0  0  0  0  0  0  0  0  0
  1  6  2  0  0  0  0
  1 15  1  0  0  0  0
  1  2  1  0  0  0  0
  2  3  2  0  0  0  0
  3  4  1  0  0  0  0
  4  5  2  0  0  0  0
  4 14  1  0  0  0  0
  5  8  1  0  0  0  0
  5  6  1  0  0  0  0
  7  9  1  0  0  0  0
  7  8  2  0  0  0  0
  7 13  1  0  0  0  0
  8 11  1  0  0  0  0
  9 10  1  0  0  0  0
 10 12  1  0  0  0  0
 10 11  2  0  0  0  0
 13 14  2  0  0  0  0
 15 16  1  0  0  0  0
 16 19  2  0  0  0  0
 16 17  1  0  0  0  0
 16 18  1  0  0  0  0
M  END
>  <COMPND>
    UNNAMED

>  <AUTHOR>
    GENERATED BY OPEN BABEL 2.4.90

>  <MASTER>
        0    0    0    0    0    0    0    0   19    0   19    0

