__2wbd_B_rec_3kc1_2t6_lig_min.pdb
 OpenBabel10181922583D

 21 23  0  0  0  0  0  0  0  0999 V2000
   12.8450    2.2320   32.7530 C   0  0  0  0  0  0  0  0  0  0  0  0
   12.7500    0.9320   32.3130 C   0  0  0  0  0  0  0  0  0  0  0  0
   11.8310    0.0570   32.8190 C   0  0  0  0  0  0  0  0  0  0  0  0
   10.9560    0.5090   33.8280 C   0  0  0  0  0  0  0  0  0  0  0  0
   11.0390    1.8330   34.2900 C   0  0  0  0  0  0  0  0  0  0  0  0
   11.9960    2.7070   33.7470 C   0  0  0  0  0  0  0  0  0  0  0  0
   13.9720    3.0070   32.0110 C   0  0  0  0  0  0  0  0  0  0  0  0
   14.4060    1.8560   31.1250 C   0  0  0  0  0  0  0  0  0  0  0  0
   13.7420    0.7190   31.2880 C   0  0  0  0  0  0  0  0  0  0  0  0
   15.5860    1.7020   29.9430 S   0  0  0  0  0  0  0  0  0  0  0  0
   15.1550    0.0630   29.6790 C   0  0  0  0  0  0  0  0  0  0  0  0
   14.1140   -0.3490   30.4960 N   0  0  0  0  0  0  0  0  0  0  0  0
   12.0920    4.0890   34.2210 C   0  0  0  0  0  0  0  0  0  0  0  0
   12.9020    4.2590   35.2830 N   0  0  0  0  0  0  0  0  0  0  0  0
   11.4830    5.0260   33.7150 O   0  0  0  0  0  0  0  0  0  0  0  0
   11.7810   -1.2370   32.3370 O   0  0  0  0  0  0  0  0  0  0  0  0
   10.8490   -1.9910   33.0720 C   0  0  0  0  0  0  0  0  0  0  0  0
   12.3700   -4.1130   32.3790 O   0  0  0  0  0  0  0  0  0  0  0  0
   10.9370   -3.7290   32.5660 P   0  0  0  0  0  0  0  0  0  0  0  0
   10.3200   -4.5990   33.6170 O   0  0  0  0  0  0  0  0  0  0  0  0
   10.1950   -3.8990   31.2740 O   0  0  0  0  0  0  0  0  0  0  0  0
  1  7  2  0  0  0  0
  1  2  1  0  0  0  0
  1  6  1  0  0  0  0
  2  9  1  0  0  0  0
  2  3  2  0  0  0  0
  3 16  1  0  0  0  0
  3  4  1  0  0  0  0
  4  5  1  0  0  0  0
  5  6  2  0  0  0  0
  6 13  1  0  0  0  0
  7  8  1  0  0  0  0
  8 10  1  0  0  0  0
  8  9  2  0  0  0  0
  9 12  1  0  0  0  0
 10 11  1  0  0  0  0
 11 12  2  0  0  0  0
 13 15  2  0  0  0  0
 13 14  1  0  0  0  0
 16 17  1  0  0  0  0
 17 19  1  0  0  0  0
 18 19  2  0  0  0  0
 19 21  1  0  0  0  0
 19 20  1  0  0  0  0
M  END
>  <COMPND>
    UNNAMED

>  <AUTHOR>
    GENERATED BY OPEN BABEL 2.4.90

>  <MASTER>
        0    0    0    0    0    0    0    0   21    0   21    0

