__2wbd_B_rec_2wbd_ro5_lig_min.pdb
 OpenBabel10181923043D

 21 22  0  0  0  0  0  0  0  0999 V2000
   15.6300   -3.7550   32.8500 C   0  0  0  0  0  0  0  0  0  0  0  0
   16.0290   -3.5380   31.7270 O   0  0  0  0  0  0  0  0  0  0  0  0
   16.3290   -4.3490   33.8100 N   0  0  0  0  0  0  0  0  0  0  0  0
   14.4430   -3.3710   33.2490 N   0  0  0  0  0  0  0  0  0  0  0  0
   17.5280   -4.8650   33.6300 C   0  0  0  0  0  0  0  0  0  0  0  0
   19.2310   -6.3480   33.8800 C   0  0  0  0  0  0  0  0  0  0  0  0
   19.8600   -5.6740   32.8890 C   0  0  0  0  0  0  0  0  0  0  0  0
   21.5750   -6.0170   32.1390 Br  0  0  0  0  0  0  0  0  0  0  0  0
   18.7370   -4.4220   32.4590 S   0  0  0  0  0  0  0  0  0  0  0  0
   18.0510   -5.9350   34.2330 N   0  0  0  0  0  0  0  0  0  0  0  0
   12.0680   -2.9710   33.0250 O   0  0  0  0  0  0  0  0  0  0  0  0
   13.1900   -3.2040   31.0740 O   0  0  0  0  0  0  0  0  0  0  0  0
   13.2740   -2.6180   32.3750 S   0  0  0  0  0  0  0  0  0  0  0  0
   13.4220    1.4320   32.8200 C   0  0  0  0  0  0  0  0  0  0  0  0
   13.1840    0.0730   33.0950 C   0  0  0  0  0  0  0  0  0  0  0  0
   13.9940    1.8080   31.5990 C   0  0  0  0  0  0  0  0  0  0  0  0
   14.0880   -0.5220   30.9430 C   0  0  0  0  0  0  0  0  0  0  0  0
   13.5290   -0.8940   32.1530 C   0  0  0  0  0  0  0  0  0  0  0  0
   14.3200    0.8140   30.6580 C   0  0  0  0  0  0  0  0  0  0  0  0
   14.9170    1.1290   29.3110 C   0  0  0  0  0  0  0  0  0  0  0  0
   16.0460    2.1000   29.5370 C   0  0  0  0  0  0  0  0  0  0  0  0
  1  2  2  0  0  0  0
  1  4  1  0  0  0  0
  1  3  1  0  0  0  0
  3  5  1  0  0  0  0
  4 13  1  0  0  0  0
  5  9  1  0  0  0  0
  5 10  2  0  0  0  0
  6  7  2  0  0  0  0
  6 10  1  0  0  0  0
  7  8  1  0  0  0  0
  7  9  1  0  0  0  0
 11 13  2  0  0  0  0
 12 13  2  0  0  0  0
 13 18  1  0  0  0  0
 14 16  2  0  0  0  0
 14 15  1  0  0  0  0
 15 18  2  0  0  0  0
 16 19  1  0  0  0  0
 17 19  2  0  0  0  0
 17 18  1  0  0  0  0
 19 20  1  0  0  0  0
 20 21  1  0  0  0  0
M  END
>  <COMPND>
    UNNAMED

>  <AUTHOR>
    GENERATED BY OPEN BABEL 2.4.90

>  <MASTER>
        0    0    0    0    0    0    0    0   21    0   21    0

