__2wbd_B_rec_4mjo_2c1_lig_docked.pdb
 OpenBabel10181923283D

 29 30  0  0  0  0  0  0  0  0999 V2000
   14.4990   -3.1250   33.0570 N   0  0  0  0  0  0  0  0  0  0  0  0
   15.6710   -3.6760   32.7950 C   0  0  0  0  0  0  0  0  0  0  0  0
   16.1520   -4.3060   33.8350 N   0  0  0  0  0  0  0  0  0  0  0  0
   16.2030   -3.6020   31.7090 O   0  0  0  0  0  0  0  0  0  0  0  0
   17.2930   -4.9970   33.9880 C   0  0  0  0  0  0  0  0  0  0  0  0
   18.5320   -6.2880   35.4830 C   0  0  0  0  0  0  0  0  0  0  0  0
   18.2430   -5.1990   32.9740 C   0  0  0  0  0  0  0  0  0  0  0  0
   17.4450   -5.5530   35.2060 N   0  0  0  0  0  4  0  0  0  0  0  0
   19.5020   -6.4940   34.4990 C   0  0  0  0  0  0  0  0  0  0  0  0
   19.3970   -5.9580   33.2080 C   0  0  0  0  0  0  0  0  0  0  0  0
   20.7540   -6.2550   31.8460 Br  0  0  0  0  0  0  0  0  0  0  0  0
   18.7390   -6.8490   36.7000 N   0  0  0  0  0  0  0  0  0  0  0  0
   15.6270   -8.5690   37.7580 C   0  0  0  0  0  0  0  0  0  0  0  0
   17.8960   -7.5630   37.4540 C   0  0  0  0  0  0  0  0  0  0  0  0
   18.3000   -7.9910   38.5190 O   0  0  0  0  0  0  0  0  0  0  0  0
   16.6460   -7.8120   37.0560 N   0  0  0  0  0  0  0  0  0  0  0  0
   13.6090   -2.3810   32.0680 S   0  0  0  0  0  0  0  0  0  0  0  0
   12.3130   -2.5370   32.6350 O   0  0  0  0  0  0  0  0  0  0  0  0
   13.5880   -3.1520   30.8400 O   0  0  0  0  0  0  0  0  0  0  0  0
   14.4610   -0.3820   30.6750 C   0  0  0  0  0  0  0  0  0  0  0  0
   14.2380    1.4500   31.8110 C   0  0  0  0  0  0  0  0  0  0  0  0
   14.7170    0.8860   30.7190 C   0  0  0  0  0  0  0  0  0  0  0  0
   13.9270   -0.8450   31.7660 C   0  0  0  0  0  0  0  0  0  0  0  0
   13.5760    0.3700   32.8570 S   0  0  0  0  0  0  0  0  0  0  0  0
   15.5000    1.6270   29.6460 C   0  0  0  0  0  0  0  0  0  0  0  0
   14.2180    2.8970   32.1770 C   0  0  0  0  0  0  0  0  0  0  0  0
   12.7770    3.3330   32.4320 C   0  0  0  0  0  0  0  0  0  0  0  0
   12.1210    3.2190   31.1730 O   0  0  0  0  0  0  0  0  0  0  0  0
   10.9900    4.0840   31.0410 C   0  0  0  0  0  0  0  0  0  0  0  0
  1 17  1  0  0  0  0
  1  2  1  0  0  0  0
  2  4  2  0  0  0  0
  2  3  1  0  0  0  0
  3  5  1  0  0  0  0
  5  7  1  0  0  0  0
  5  8  2  0  0  0  0
  6  9  1  0  0  0  0
  6  8  2  0  0  0  0
  6 12  1  0  0  0  0
  7 10  1  0  0  0  0
  9 10  2  0  0  0  0
 10 11  1  0  0  0  0
 12 14  1  0  0  0  0
 13 16  1  0  0  0  0
 14 16  1  0  0  0  0
 14 15  2  0  0  0  0
 17 19  2  0  0  0  0
 17 23  1  0  0  0  0
 17 18  2  0  0  0  0
 20 22  1  0  0  0  0
 20 23  2  0  0  0  0
 21 22  2  0  0  0  0
 21 26  1  0  0  0  0
 21 24  1  0  0  0  0
 22 25  1  0  0  0  0
 23 24  1  0  0  0  0
 26 27  1  0  0  0  0
 27 28  1  0  0  0  0
 28 29  1  0  0  0  0
M  END
>  <MODEL>
       1

>  <COMPND>
    UNNAMED

>  <AUTHOR>
    GENERATED BY OPEN BABEL 2.4.90

>  <MASTER>
        0    0    0    0    0    0    0    0   29    0   29    0

