__2y5k_A_rec_3kbz_2t4_lig_min.pdb
 OpenBabel10181922433D

 19 21  0  0  0  0  0  0  0  0999 V2000
   11.1560   -0.4340   34.0190 C   0  0  0  0  0  0  0  0  0  0  0  0
   10.1320   -0.2490   34.9680 C   0  0  0  0  0  0  0  0  0  0  0  0
    9.7880    1.0510   35.3980 C   0  0  0  0  0  0  0  0  0  0  0  0
   10.4710    2.1620   34.8750 C   0  0  0  0  0  0  0  0  0  0  0  0
   11.4750    1.9430   33.9390 C   0  0  0  0  0  0  0  0  0  0  0  0
   11.7950    0.6680   33.5360 C   0  0  0  0  0  0  0  0  0  0  0  0
   12.3540    3.0050   33.2280 C   0  0  0  0  0  0  0  0  0  0  0  0
   13.1640    2.0170   32.4040 C   0  0  0  0  0  0  0  0  0  0  0  0
   12.8590    0.7440   32.5730 C   0  0  0  0  0  0  0  0  0  0  0  0
   14.4010    2.1920   31.2890 S   0  0  0  0  0  0  0  0  0  0  0  0
   14.5010    0.4930   31.0590 C   0  0  0  0  0  0  0  0  0  0  0  0
   13.5760   -0.1790   31.8430 N   0  0  0  0  0  0  0  0  0  0  0  0
   15.4480   -0.1550   30.1450 N   0  0  0  0  0  0  0  0  0  0  0  0
   11.5290   -1.6880   33.5640 O   0  0  0  0  0  0  0  0  0  0  0  0
   10.4000   -2.4460   33.2060 C   0  0  0  0  0  0  0  0  0  0  0  0
   10.9330   -4.0420   32.5280 P   0  0  0  0  0  0  0  0  0  0  0  0
   10.4090   -5.1630   33.3760 O   0  0  0  0  0  0  0  0  0  0  0  0
   10.4080   -4.1860   31.1340 O   0  0  0  0  0  0  0  0  0  0  0  0
   12.4280   -4.0870   32.5080 O   0  0  0  0  0  0  0  0  0  0  0  0
  1  6  2  0  0  0  0
  1 14  1  0  0  0  0
  1  2  1  0  0  0  0
  2  3  1  0  0  0  0
  3  4  2  0  0  0  0
  4  5  1  0  0  0  0
  5  7  2  0  0  0  0
  5  6  1  0  0  0  0
  6  9  1  0  0  0  0
  7  8  1  0  0  0  0
  8 10  1  0  0  0  0
  8  9  2  0  0  0  0
  9 12  1  0  0  0  0
 10 11  1  0  0  0  0
 11 13  1  0  0  0  0
 11 12  2  0  0  0  0
 14 15  1  0  0  0  0
 15 16  1  0  0  0  0
 16 18  2  0  0  0  0
 16 19  1  0  0  0  0
 16 17  1  0  0  0  0
M  END
>  <COMPND>
    UNNAMED

>  <AUTHOR>
    GENERATED BY OPEN BABEL 2.4.90

>  <MASTER>
        0    0    0    0    0    0    0    0   19    0   19    0

