__2y5l_B_rec_3kc0_2t5_lig_docked.pdb
 OpenBabel10181923593D

 18 20  0  0  0  0  0  0  0  0999 V2000
   11.5620   -0.0140   33.7870 C   0  0  0  0  0  0  0  0  0  0  0  0
   12.3880    0.8060   33.0760 C   0  0  0  0  0  0  0  0  0  0  0  0
   12.3520    2.1630   33.2890 C   0  0  0  0  0  0  0  0  0  0  0  0
   11.4910    2.7300   34.2150 C   0  0  0  0  0  0  0  0  0  0  0  0
   10.6500    1.8990   34.9400 C   0  0  0  0  0  0  0  0  0  0  0  0
   10.6830    0.5210   34.7260 C   0  0  0  0  0  0  0  0  0  0  0  0
   13.3570    2.9610   32.3970 C   0  0  0  0  0  0  0  0  0  0  0  0
   13.9120    1.7430   31.6840 C   0  0  0  0  0  0  0  0  0  0  0  0
   13.3950    0.5850   32.0460 C   0  0  0  0  0  0  0  0  0  0  0  0
   15.1300    1.4670   30.4350 S   0  0  0  0  0  0  0  0  0  0  0  0
   14.7950   -0.2650   30.5400 C   0  0  0  0  0  0  0  0  0  0  0  0
   13.8390   -0.5710   31.4510 N   0  0  0  0  0  0  0  0  0  0  0  0
   11.6320   -1.3720   33.5390 O   0  0  0  0  0  0  0  0  0  0  0  0
   10.6330   -1.7780   32.6520 C   0  0  0  0  0  0  0  0  0  0  0  0
   10.8190   -3.5630   32.3860 P   0  0  0  0  0  0  0  0  0  0  0  0
   12.2320   -3.8790   31.9880 O   0  0  0  0  0  0  0  0  0  0  0  0
    9.8880   -3.9950   31.2960 O   0  0  0  0  0  0  0  0  0  0  0  0
   10.4680   -4.2940   33.6470 O   0  0  0  0  0  0  0  0  0  0  0  0
  1  2  2  0  0  0  0
  1 13  1  0  0  0  0
  1  6  1  0  0  0  0
  2  9  1  0  0  0  0
  2  3  1  0  0  0  0
  3  7  2  0  0  0  0
  3  4  1  0  0  0  0
  4  5  2  0  0  0  0
  5  6  1  0  0  0  0
  7  8  1  0  0  0  0
  8 10  1  0  0  0  0
  8  9  2  0  0  0  0
  9 12  1  0  0  0  0
 10 11  1  0  0  0  0
 11 12  2  0  0  0  0
 13 14  1  0  0  0  0
 14 15  1  0  0  0  0
 15 18  2  0  0  0  0
 15 17  1  0  0  0  0
 15 16  1  0  0  0  0
M  END
>  <MODEL>
       2

>  <COMPND>
    UNNAMED

>  <AUTHOR>
    GENERATED BY OPEN BABEL 2.4.90

>  <MASTER>
        0    0    0    0    0    0    0    0   18    0   18    0

