__2y5l_B_rec_3a29_2t0_lig_min.pdb
 OpenBabel10181922593D

 19 21  0  0  0  0  0  0  0  0999 V2000
   10.5330   -1.5190   34.0660 C   0  0  0  0  0  0  0  0  0  0  0  0
    9.7360   -0.8070   34.9590 C   0  0  0  0  0  0  0  0  0  0  0  0
    9.9730    0.5620   35.1380 C   0  0  0  0  0  0  0  0  0  0  0  0
   10.9950    1.2220   34.4380 C   0  0  0  0  0  0  0  0  0  0  0  0
   11.7800    0.4810   33.5500 C   0  0  0  0  0  0  0  0  0  0  0  0
   11.5450   -0.8740   33.3710 C   0  0  0  0  0  0  0  0  0  0  0  0
   13.0020    2.5310   32.8800 C   0  0  0  0  0  0  0  0  0  0  0  0
   12.8470    1.1530   32.8020 C   0  0  0  0  0  0  0  0  0  0  0  0
   14.3160    2.9810   31.9180 S   0  0  0  0  0  0  0  0  0  0  0  0
   14.6260    1.3850   31.4520 C   0  0  0  0  0  0  0  0  0  0  0  0
   13.7550    0.5110   32.0060 N   0  0  0  0  0  0  0  0  0  0  0  0
   15.7210    1.0350   30.5560 N   0  0  0  0  0  0  0  0  0  0  0  0
   12.1520    3.5000   33.6570 C   0  0  0  0  0  0  0  0  0  0  0  0
   11.2310    2.7340   34.6620 C   0  0  0  0  0  0  0  0  0  0  0  0
   10.3150   -2.9070   33.8640 O   0  0  0  0  0  0  0  0  0  0  0  0
   10.5800   -3.6950   32.5350 P   0  0  0  0  0  0  0  0  0  0  0  0
   11.9850   -4.3150   32.5110 O   0  0  0  0  0  0  0  0  0  0  0  0
    9.5520   -4.8280   32.3890 O   0  0  0  0  0  0  0  0  0  0  0  0
   10.4780   -2.7850   31.2880 O   0  0  0  0  0  0  0  0  0  0  0  0
  1  6  2  0  0  0  0
  1 15  1  0  0  0  0
  1  2  1  0  0  0  0
  2  3  2  0  0  0  0
  3  4  1  0  0  0  0
  4  5  2  0  0  0  0
  4 14  1  0  0  0  0
  5  8  1  0  0  0  0
  5  6  1  0  0  0  0
  7  9  1  0  0  0  0
  7  8  2  0  0  0  0
  7 13  1  0  0  0  0
  8 11  1  0  0  0  0
  9 10  1  0  0  0  0
 10 12  1  0  0  0  0
 10 11  2  0  0  0  0
 13 14  2  0  0  0  0
 15 16  1  0  0  0  0
 16 19  2  0  0  0  0
 16 17  1  0  0  0  0
 16 18  1  0  0  0  0
M  END
>  <COMPND>
    UNNAMED

>  <AUTHOR>
    GENERATED BY OPEN BABEL 2.4.90

>  <MASTER>
        0    0    0    0    0    0    0    0   19    0   19    0

