__3a29_A_rec_3kc1_2t6_lig_min.pdb
 OpenBabel10181923003D

 21 23  0  0  0  0  0  0  0  0999 V2000
   12.5820    2.2810   32.4550 C   0  0  0  0  0  0  0  0  0  0  0  0
   12.5560    0.9390   32.1550 C   0  0  0  0  0  0  0  0  0  0  0  0
   11.6430    0.0860   32.7080 C   0  0  0  0  0  0  0  0  0  0  0  0
   10.7010    0.6070   33.6180 C   0  0  0  0  0  0  0  0  0  0  0  0
   10.7130    1.9750   33.9370 C   0  0  0  0  0  0  0  0  0  0  0  0
   11.6660    2.8240   33.3500 C   0  0  0  0  0  0  0  0  0  0  0  0
   13.7180    3.0180   31.6890 C   0  0  0  0  0  0  0  0  0  0  0  0
   14.2390    1.7980   30.9560 C   0  0  0  0  0  0  0  0  0  0  0  0
   13.6070    0.6580   31.2090 C   0  0  0  0  0  0  0  0  0  0  0  0
   15.4840    1.5670   29.8560 S   0  0  0  0  0  0  0  0  0  0  0  0
   15.1260   -0.1070   29.7510 C   0  0  0  0  0  0  0  0  0  0  0  0
   14.0580   -0.4720   30.5560 N   0  0  0  0  0  0  0  0  0  0  0  0
   11.6880    4.2520   33.6740 C   0  0  0  0  0  0  0  0  0  0  0  0
   12.4050    4.5630   34.7710 N   0  0  0  0  0  0  0  0  0  0  0  0
   11.0990    5.1080   33.0220 O   0  0  0  0  0  0  0  0  0  0  0  0
   11.6650   -1.2520   32.3670 O   0  0  0  0  0  0  0  0  0  0  0  0
   10.7960   -1.9780   33.2020 C   0  0  0  0  0  0  0  0  0  0  0  0
   12.5200   -4.0450   33.4230 O   0  0  0  0  0  0  0  0  0  0  0  0
   11.1110   -3.7530   33.0160 P   0  0  0  0  0  0  0  0  0  0  0  0
   10.1700   -4.5320   33.8820 O   0  0  0  0  0  0  0  0  0  0  0  0
   10.9080   -4.1360   31.5810 O   0  0  0  0  0  0  0  0  0  0  0  0
  1  7  2  0  0  0  0
  1  2  1  0  0  0  0
  1  6  1  0  0  0  0
  2  9  1  0  0  0  0
  2  3  2  0  0  0  0
  3 16  1  0  0  0  0
  3  4  1  0  0  0  0
  4  5  1  0  0  0  0
  5  6  2  0  0  0  0
  6 13  1  0  0  0  0
  7  8  1  0  0  0  0
  8 10  1  0  0  0  0
  8  9  2  0  0  0  0
  9 12  1  0  0  0  0
 10 11  1  0  0  0  0
 11 12  2  0  0  0  0
 13 15  2  0  0  0  0
 13 14  1  0  0  0  0
 16 17  1  0  0  0  0
 17 19  1  0  0  0  0
 18 19  2  0  0  0  0
 19 21  1  0  0  0  0
 19 20  1  0  0  0  0
M  END
>  <COMPND>
    UNNAMED

>  <AUTHOR>
    GENERATED BY OPEN BABEL 2.4.90

>  <MASTER>
        0    0    0    0    0    0    0    0   21    0   21    0

