__3a29_A_rec_3a29_2t0_lig_min.pdb
 OpenBabel10181923003D

 19 21  0  0  0  0  0  0  0  0999 V2000
   10.3580   -1.3750   33.4450 C   0  0  0  0  0  0  0  0  0  0  0  0
    9.7120   -0.3940   34.1920 C   0  0  0  0  0  0  0  0  0  0  0  0
   10.1640    0.9300   34.1110 C   0  0  0  0  0  0  0  0  0  0  0  0
   11.2530    1.2790   33.2950 C   0  0  0  0  0  0  0  0  0  0  0  0
   11.8820    0.2720   32.5590 C   0  0  0  0  0  0  0  0  0  0  0  0
   11.4340   -1.0380   32.6370 C   0  0  0  0  0  0  0  0  0  0  0  0
   13.3850    1.9430   31.5120 C   0  0  0  0  0  0  0  0  0  0  0  0
   13.0150    0.6170   31.6930 C   0  0  0  0  0  0  0  0  0  0  0  0
   14.7190    1.9920   30.4770 S   0  0  0  0  0  0  0  0  0  0  0  0
   14.7610    0.3100   30.3160 C   0  0  0  0  0  0  0  0  0  0  0  0
   13.7850   -0.2970   31.0270 N   0  0  0  0  0  0  0  0  0  0  0  0
   15.7570   -0.3690   29.4960 N   0  0  0  0  0  0  0  0  0  0  0  0
   12.7230    3.1600   32.0980 C   0  0  0  0  0  0  0  0  0  0  0  0
   11.7290    2.7490   33.2320 C   0  0  0  0  0  0  0  0  0  0  0  0
    9.9200   -2.7240   33.5070 O   0  0  0  0  0  0  0  0  0  0  0  0
   10.7340   -3.9770   33.0340 P   0  0  0  0  0  0  0  0  0  0  0  0
   12.1890   -3.9280   33.5240 O   0  0  0  0  0  0  0  0  0  0  0  0
   10.0840   -5.2570   33.5850 O   0  0  0  0  0  0  0  0  0  0  0  0
   10.7900   -4.0880   31.4920 O   0  0  0  0  0  0  0  0  0  0  0  0
  1  6  2  0  0  0  0
  1 15  1  0  0  0  0
  1  2  1  0  0  0  0
  2  3  2  0  0  0  0
  3  4  1  0  0  0  0
  4  5  2  0  0  0  0
  4 14  1  0  0  0  0
  5  8  1  0  0  0  0
  5  6  1  0  0  0  0
  7  9  1  0  0  0  0
  7  8  2  0  0  0  0
  7 13  1  0  0  0  0
  8 11  1  0  0  0  0
  9 10  1  0  0  0  0
 10 12  1  0  0  0  0
 10 11  2  0  0  0  0
 13 14  2  0  0  0  0
 15 16  1  0  0  0  0
 16 19  2  0  0  0  0
 16 17  1  0  0  0  0
 16 18  1  0  0  0  0
M  END
>  <COMPND>
    UNNAMED

>  <AUTHOR>
    GENERATED BY OPEN BABEL 2.4.90

>  <MASTER>
        0    0    0    0    0    0    0    0   19    0   19    0

