__3kc0_D_rec_3kbz_2t4_lig_docked.pdb
 OpenBabel10181923403D

 19 21  0  0  0  0  0  0  0  0999 V2000
   10.9280    0.2780   33.3480 C   0  0  0  0  0  0  0  0  0  0  0  0
    9.9260    0.6140   34.2790 C   0  0  0  0  0  0  0  0  0  0  0  0
    9.8910    1.9050   34.8490 C   0  0  0  0  0  0  0  0  0  0  0  0
   10.8600    2.8550   34.4840 C   0  0  0  0  0  0  0  0  0  0  0  0
   11.8330    2.4890   33.5610 C   0  0  0  0  0  0  0  0  0  0  0  0
   11.8490    1.2250   33.0190 C   0  0  0  0  0  0  0  0  0  0  0  0
   12.9910    3.3620   33.0100 C   0  0  0  0  0  0  0  0  0  0  0  0
   13.5780    2.2950   32.1000 C   0  0  0  0  0  0  0  0  0  0  0  0
   12.9550    1.1310   32.1070 C   0  0  0  0  0  0  0  0  0  0  0  0
   14.8840    2.2670   31.0550 S   0  0  0  0  0  0  0  0  0  0  0  0
   14.5720    0.6330   30.6270 C   0  0  0  0  0  0  0  0  0  0  0  0
   13.4630    0.1380   31.2960 N   0  0  0  0  0  0  0  0  0  0  0  0
   15.3810   -0.1330   29.6730 N   0  0  0  0  0  0  0  0  0  0  0  0
   11.0030   -0.9740   32.7590 O   0  0  0  0  0  0  0  0  0  0  0  0
   11.2700   -1.9640   33.7220 C   0  0  0  0  0  0  0  0  0  0  0  0
   12.2690   -3.2810   32.9740 P   0  0  0  0  0  0  0  0  0  0  0  0
   13.4130   -3.6370   33.8770 O   0  0  0  0  0  0  0  0  0  0  0  0
   11.4120   -4.4890   32.7590 O   0  0  0  0  0  0  0  0  0  0  0  0
   12.8000   -2.8020   31.6600 O   0  0  0  0  0  0  0  0  0  0  0  0
  1  6  2  0  0  0  0
  1 14  1  0  0  0  0
  1  2  1  0  0  0  0
  2  3  1  0  0  0  0
  3  4  2  0  0  0  0
  4  5  1  0  0  0  0
  5  7  2  0  0  0  0
  5  6  1  0  0  0  0
  6  9  1  0  0  0  0
  7  8  1  0  0  0  0
  8 10  1  0  0  0  0
  8  9  2  0  0  0  0
  9 12  1  0  0  0  0
 10 11  1  0  0  0  0
 11 13  1  0  0  0  0
 11 12  2  0  0  0  0
 14 15  1  0  0  0  0
 15 16  1  0  0  0  0
 16 18  2  0  0  0  0
 16 19  1  0  0  0  0
 16 17  1  0  0  0  0
M  END
>  <MODEL>
       2

>  <COMPND>
    UNNAMED

>  <AUTHOR>
    GENERATED BY OPEN BABEL 2.4.90

>  <MASTER>
        0    0    0    0    0    0    0    0   19    0   19    0

