__4mjo_B_rec_4mjo_2c1_lig_min.pdb
 OpenBabel10181923013D

 29 30  0  0  0  0  0  0  0  0999 V2000
   14.4370   -3.2200   33.0370 N   0  0  0  0  0  0  0  0  0  0  0  0
   15.6410   -3.7320   32.8580 C   0  0  0  0  0  0  0  0  0  0  0  0
   16.0630   -4.3610   33.9250 N   0  0  0  0  0  0  0  0  0  0  0  0
   16.2490   -3.6290   31.8160 O   0  0  0  0  0  0  0  0  0  0  0  0
   17.2100   -5.0190   34.1560 C   0  0  0  0  0  0  0  0  0  0  0  0
   18.5950   -5.8680   35.8270 C   0  0  0  0  0  0  0  0  0  0  0  0
   18.0440   -5.5380   33.1530 C   0  0  0  0  0  0  0  0  0  0  0  0
   17.4890   -5.2050   35.4600 N   0  0  0  0  0  4  0  0  0  0  0  0
   19.4530   -6.3840   34.8520 C   0  0  0  0  0  0  0  0  0  0  0  0
   19.2130   -6.2390   33.4790 C   0  0  0  0  0  0  0  0  0  0  0  0
   20.4140   -6.9640   32.1310 Br  0  0  0  0  0  0  0  0  0  0  0  0
   18.9280   -6.0620   37.1280 N   0  0  0  0  0  0  0  0  0  0  0  0
   15.8170   -6.5270   39.0930 C   0  0  0  0  0  0  0  0  0  0  0  0
   18.1310   -6.2720   38.1800 C   0  0  0  0  0  0  0  0  0  0  0  0
   18.6500   -6.4400   39.2680 O   0  0  0  0  0  0  0  0  0  0  0  0
   16.8030   -6.3060   38.0520 N   0  0  0  0  0  0  0  0  0  0  0  0
   13.5990   -2.4910   31.9920 S   0  0  0  0  0  0  0  0  0  0  0  0
   12.2680   -2.7930   32.3930 O   0  0  0  0  0  0  0  0  0  0  0  0
   13.7880   -3.1790   30.7300 O   0  0  0  0  0  0  0  0  0  0  0  0
   14.4680   -0.3430   30.8550 C   0  0  0  0  0  0  0  0  0  0  0  0
   13.8720    1.3910   32.0120 C   0  0  0  0  0  0  0  0  0  0  0  0
   14.5840    0.9390   30.9970 C   0  0  0  0  0  0  0  0  0  0  0  0
   13.8070   -0.9160   31.8160 C   0  0  0  0  0  0  0  0  0  0  0  0
   13.1550    0.1940   32.8800 S   0  0  0  0  0  0  0  0  0  0  0  0
   15.4590    1.8100   30.1090 C   0  0  0  0  0  0  0  0  0  0  0  0
   13.6440    2.8060   32.4290 C   0  0  0  0  0  0  0  0  0  0  0  0
   12.1440    3.0530   32.5740 C   0  0  0  0  0  0  0  0  0  0  0  0
   11.7570    3.7230   31.3790 O   0  0  0  0  0  0  0  0  0  0  0  0
   11.1090    4.9760   31.6150 C   0  0  0  0  0  0  0  0  0  0  0  0
  1 17  1  0  0  0  0
  1  2  1  0  0  0  0
  2  4  2  0  0  0  0
  2  3  1  0  0  0  0
  3  5  1  0  0  0  0
  5  7  1  0  0  0  0
  5  8  2  0  0  0  0
  6  9  1  0  0  0  0
  6  8  2  0  0  0  0
  6 12  1  0  0  0  0
  7 10  1  0  0  0  0
  9 10  2  0  0  0  0
 10 11  1  0  0  0  0
 12 14  1  0  0  0  0
 13 16  1  0  0  0  0
 14 16  1  0  0  0  0
 14 15  2  0  0  0  0
 17 19  2  0  0  0  0
 17 23  1  0  0  0  0
 17 18  2  0  0  0  0
 20 22  1  0  0  0  0
 20 23  2  0  0  0  0
 21 22  2  0  0  0  0
 21 26  1  0  0  0  0
 21 24  1  0  0  0  0
 22 25  1  0  0  0  0
 23 24  1  0  0  0  0
 26 27  1  0  0  0  0
 27 28  1  0  0  0  0
 28 29  1  0  0  0  0
M  END
>  <COMPND>
    UNNAMED

>  <AUTHOR>
    GENERATED BY OPEN BABEL 2.4.90

>  <MASTER>
        0    0    0    0    0    0    0    0   29    0   29    0

