__5ldz_B_rec_2fhy_a37_lig_min.pdb
 OpenBabel10181923043D

 22 24  0  0  0  0  0  0  0  0999 V2000
   14.2380   -3.7000   32.8460 N   0  0  0  0  0  0  0  0  0  0  0  0
   15.6910   -4.0830   33.0160 C   0  0  0  0  0  0  0  0  0  0  0  0
   16.6060   -4.2750   31.9960 N   0  0  0  0  0  0  0  0  0  0  0  0
   17.8560   -4.6120   32.5840 C   0  0  0  0  0  0  0  0  0  0  0  0
   19.1560   -4.9070   32.0650 C   0  0  0  0  0  0  0  0  0  0  0  0
   20.2230   -5.2110   32.9880 C   0  0  0  0  0  0  0  0  0  0  0  0
   21.8070   -5.5690   32.3810 Cl  0  0  0  0  0  0  0  0  0  0  0  0
   20.0030   -5.2210   34.4070 C   0  0  0  0  0  0  0  0  0  0  0  0
   18.6950   -4.9150   34.9380 C   0  0  0  0  0  0  0  0  0  0  0  0
   17.6270   -4.6090   34.0490 C   0  0  0  0  0  0  0  0  0  0  0  0
   16.2840   -4.2810   34.2650 O   0  0  0  0  0  0  0  0  0  0  0  0
   13.5720   -3.0490   31.4090 S   0  0  0  0  0  0  0  0  0  0  0  0
   14.5440   -3.2740   30.2850 O   0  0  0  0  0  0  0  0  0  0  0  0
   12.1900   -3.6970   31.2590 O   0  0  0  0  0  0  0  0  0  0  0  0
   12.2190    0.7010   32.4730 C   0  0  0  0  0  0  0  0  0  0  0  0
   13.1640    1.5830   31.8210 C   0  0  0  0  0  0  0  0  0  0  0  0
   14.1980    1.0090   31.0540 C   0  0  0  0  0  0  0  0  0  0  0  0
   14.3210   -0.4370   30.9240 C   0  0  0  0  0  0  0  0  0  0  0  0
   13.3700   -1.2990   31.5890 C   0  0  0  0  0  0  0  0  0  0  0  0
   12.3340   -0.7370   32.3520 C   0  0  0  0  0  0  0  0  0  0  0  0
   15.3190    2.0530   30.2680 Cl  0  0  0  0  0  0  0  0  0  0  0  0
   11.1580   -1.7440   33.1720 Cl  0  0  0  0  0  0  0  0  0  0  0  0
  1 12  1  0  0  0  0
  1  2  1  0  0  0  0
  2  3  2  0  0  0  0
  2 11  1  0  0  0  0
  3  4  1  0  0  0  0
  4  5  2  0  0  0  0
  4 10  1  0  0  0  0
  5  6  1  0  0  0  0
  6  7  1  0  0  0  0
  6  8  2  0  0  0  0
  8  9  1  0  0  0  0
  9 10  2  0  0  0  0
 10 11  1  0  0  0  0
 12 13  2  0  0  0  0
 12 19  1  0  0  0  0
 12 14  2  0  0  0  0
 15 16  2  0  0  0  0
 15 20  1  0  0  0  0
 16 17  1  0  0  0  0
 17 21  1  0  0  0  0
 17 18  2  0  0  0  0
 18 19  1  0  0  0  0
 19 20  2  0  0  0  0
 20 22  1  0  0  0  0
M  END
>  <COMPND>
    UNNAMED

>  <AUTHOR>
    GENERATED BY OPEN BABEL 2.4.90

>  <MASTER>
        0    0    0    0    0    0    0    0   22    0   22    0

