__2cdz_A_rec_4o0y_2oo_lig_min.pdb
 OpenBabel10201902233D

 25 27  0  0  0  0  0  0  0  0999 V2000
   14.2330   32.4320   14.3710 C   0  0  0  0  0  0  0  0  0  0  0  0
   15.2770   33.0410   13.8620 N   0  0  0  0  0  0  0  0  0  0  0  0
   15.1680   34.3880   14.0650 C   0  0  0  0  0  0  0  0  0  0  0  0
   15.9800   35.4850   13.7300 C   0  0  0  0  0  0  0  0  0  0  0  0
   15.6160   36.7650   14.0840 C   0  0  0  0  0  0  0  0  0  0  0  0
   14.4110   36.9910   14.7640 C   0  0  0  0  0  0  0  0  0  0  0  0
   13.5940   35.9090   15.1010 C   0  0  0  0  0  0  0  0  0  0  0  0
   13.9630   34.6150   14.7610 C   0  0  0  0  0  0  0  0  0  0  0  0
   13.3890   33.3590   14.9400 N   0  0  0  0  0  0  0  0  0  0  0  0
   12.1960   33.0780   15.5990 C   0  0  0  0  0  0  0  0  0  0  0  0
   11.6650   31.8480   15.5750 N   0  0  0  0  0  0  0  0  0  0  0  0
   10.5290   31.5930   16.2250 C   0  0  0  0  0  0  0  0  0  0  0  0
    9.9240   32.5640   16.9090 N   0  0  0  0  0  0  0  0  0  0  0  0
   10.4670   33.7930   16.9390 C   0  0  0  0  0  0  0  0  0  0  0  0
   11.5970   34.0440   16.2950 N   0  0  0  0  0  0  0  0  0  0  0  0
    9.8770   34.8240   17.6250 N   0  0  0  0  0  0  0  0  0  0  0  0
   13.9950   31.0680   14.3530 N   0  0  0  0  0  0  0  0  0  0  0  0
   13.0280   30.0860   12.2950 C   0  0  0  0  0  0  0  0  0  0  0  0
   14.2800   30.2470   13.1620 C   0  0  0  0  0  0  0  0  0  0  0  0
   14.0120   38.3190   15.1410 C   0  0  0  0  0  0  0  0  0  0  0  0
   13.6680   39.4030   15.4410 C   0  0  0  0  0  0  0  0  0  0  0  0
   13.1650   40.7340   15.8350 C   0  0  0  0  0  0  0  0  0  0  0  0
   11.6340   40.6780   15.7640 C   0  0  0  0  0  0  0  0  0  0  0  0
   13.6290   41.0500   17.2530 C   0  0  0  0  0  0  0  0  0  0  0  0
   13.5750   41.7710   14.9310 O   0  0  0  0  0  0  0  0  0  0  0  0
  1  2  2  0  0  0  0
  1 17  1  0  0  0  0
  1  9  1  0  0  0  0
  2  3  1  0  0  0  0
  3  4  2  0  0  0  0
  3  8  1  0  0  0  0
  4  5  1  0  0  0  0
  5  6  2  0  0  0  0
  6  7  1  0  0  0  0
  6 20  1  0  0  0  0
  7  8  2  0  0  0  0
  8  9  1  0  0  0  0
  9 10  1  0  0  0  0
 10 11  2  0  0  0  0
 10 15  1  0  0  0  0
 11 12  1  0  0  0  0
 12 13  1  0  0  0  0
 13 14  2  0  0  0  0
 14 15  1  0  0  0  0
 14 16  1  0  0  0  0
 17 19  1  0  0  0  0
 18 19  1  0  0  0  0
 20 21  3  0  0  0  0
 21 22  1  0  0  0  0
 22 25  1  0  0  0  0
 22 23  1  0  0  0  0
 22 24  1  0  0  0  0
M  END
>  <COMPND>
    UNNAMED

>  <AUTHOR>
    GENERATED BY OPEN BABEL 2.4.90

>  <MASTER>
        0    0    0    0    0    0    0    0   25    0   25    0

