__2cdz_A_rec_4o0y_2oo_lig_it2_docked.pdb
 OpenBabel10201904223D

 25 27  0  0  0  0  0  0  0  0999 V2000
   14.5930   32.8770   14.3410 C   0  0  0  0  0  0  0  0  0  0  0  0
   15.6000   33.5420   13.8280 N   0  0  0  0  0  0  0  0  0  0  0  0
   15.4140   34.8820   14.0220 C   0  0  0  0  0  0  0  0  0  0  0  0
   16.1610   36.0220   13.6790 C   0  0  0  0  0  0  0  0  0  0  0  0
   15.7240   37.2810   14.0240 C   0  0  0  0  0  0  0  0  0  0  0  0
   14.5080   37.4420   14.7030 C   0  0  0  0  0  0  0  0  0  0  0  0
   13.7540   36.3170   15.0470 C   0  0  0  0  0  0  0  0  0  0  0  0
   14.1970   35.0440   14.7160 C   0  0  0  0  0  0  0  0  0  0  0  0
   13.6970   33.7580   14.9040 N   0  0  0  0  0  0  0  0  0  0  0  0
   12.5210   33.4130   15.5640 C   0  0  0  0  0  0  0  0  0  0  0  0
   12.0900   32.1450   15.5920 N   0  0  0  0  0  0  0  0  0  0  0  0
   10.9700   31.8300   16.2440 C   0  0  0  0  0  0  0  0  0  0  0  0
   10.2810   32.7800   16.8770 N   0  0  0  0  0  0  0  0  0  0  0  0
   10.7250   34.0480   16.8550 C   0  0  0  0  0  0  0  0  0  0  0  0
   11.8400   34.3590   16.2100 N   0  0  0  0  0  0  0  0  0  0  0  0
   10.0470   35.0590   17.4880 N   0  0  0  0  0  0  0  0  0  0  0  0
   14.4340   31.5020   14.3320 N   0  0  0  0  0  0  0  0  0  0  0  0
   12.5530   30.4800   13.0870 C   0  0  0  0  0  0  0  0  0  0  0  0
   14.0560   30.7730   13.1080 C   0  0  0  0  0  0  0  0  0  0  0  0
   14.0320   38.7470   15.0700 C   0  0  0  0  0  0  0  0  0  0  0  0
   13.6430   39.8100   15.3890 C   0  0  0  0  0  0  0  0  0  0  0  0
   13.2050   41.1420   15.8520 C   0  0  0  0  0  0  0  0  0  0  0  0
   11.6890   41.0690   16.0730 C   0  0  0  0  0  0  0  0  0  0  0  0
   13.9240   41.4860   17.1540 C   0  0  0  0  0  0  0  0  0  0  0  0
   13.4230   42.1680   14.8730 O   0  0  0  0  0  0  0  0  0  0  0  0
  1  2  2  0  0  0  0
  1 17  1  0  0  0  0
  1  9  1  0  0  0  0
  2  3  1  0  0  0  0
  3  4  2  0  0  0  0
  3  8  1  0  0  0  0
  4  5  1  0  0  0  0
  5  6  2  0  0  0  0
  6  7  1  0  0  0  0
  6 20  1  0  0  0  0
  7  8  2  0  0  0  0
  8  9  1  0  0  0  0
  9 10  1  0  0  0  0
 10 11  2  0  0  0  0
 10 15  1  0  0  0  0
 11 12  1  0  0  0  0
 12 13  1  0  0  0  0
 13 14  2  0  0  0  0
 14 15  1  0  0  0  0
 14 16  1  0  0  0  0
 17 19  1  0  0  0  0
 18 19  1  0  0  0  0
 20 21  3  0  0  0  0
 21 22  1  0  0  0  0
 22 25  1  0  0  0  0
 22 23  1  0  0  0  0
 22 24  1  0  0  0  0
M  END
>  <MODEL>
       9

>  <COMPND>
    UNNAMED

>  <AUTHOR>
    GENERATED BY OPEN BABEL 2.4.90

>  <MASTER>
        0    0    0    0    0    0    0    0   25    0   25    0

