__2cdz_A_rec_5i0b_67u_lig_min.pdb
 OpenBabel10201902123D

 19 21  0  0  0  0  0  0  0  0999 V2000
   11.3470   30.3580   15.4410 C   0  0  0  0  0  0  0  0  0  0  0  0
   12.2140   31.3620   15.2300 N   0  0  0  0  0  0  0  0  0  0  0  0
   11.7320   32.4660   15.8290 C   0  0  0  0  0  0  0  0  0  0  0  0
   12.2050   33.7230   15.9030 C   0  0  0  0  0  0  0  0  0  0  0  0
   11.5010   34.7050   16.6040 C   0  0  0  0  0  0  0  0  0  0  0  0
   12.1230   36.5660   16.7560 Br  0  0  0  0  0  0  0  0  0  0  0  0
   10.3050   34.3360   17.2120 C   0  0  0  0  0  0  0  0  0  0  0  0
    9.8530   33.0260   17.1050 N   0  0  0  0  0  0  0  0  0  0  0  0
   10.5730   32.1250   16.4220 C   0  0  0  0  0  0  0  0  0  0  0  0
   10.3460   30.8320   16.1970 N   0  0  0  0  0  0  0  0  0  0  0  0
   12.3500   28.4360   14.2340 C   0  0  0  0  0  0  0  0  0  0  0  0
   12.0350   27.1390   14.1770 N   0  0  0  0  0  0  0  0  0  0  0  0
   11.0050   26.9510   14.8790 N   0  0  0  0  0  0  0  0  0  0  0  0
   10.3530   25.6580   15.0650 C   0  0  0  0  0  0  0  0  0  0  0  0
   10.6110   28.0950   15.4410 C   0  0  0  0  0  0  0  0  0  0  0  0
   11.4500   29.0550   15.0340 C   0  0  0  0  0  0  0  0  0  0  0  0
   13.0700   29.5990   12.1610 C   0  0  0  0  0  0  0  0  0  0  0  0
   13.5540   29.0390   13.4880 C   0  0  0  0  0  0  0  0  0  0  0  0
   14.6380   27.9930   13.2420 C   0  0  0  0  0  0  0  0  0  0  0  0
  1 16  1  0  0  0  0
  1  2  2  0  0  0  0
  1 10  1  0  0  0  0
  2  3  1  0  0  0  0
  3  9  1  0  0  0  0
  3  4  2  0  0  0  0
  4  5  1  0  0  0  0
  5  7  2  0  0  0  0
  5  6  1  0  0  0  0
  7  8  1  0  0  0  0
  8  9  2  0  0  0  0
  9 10  1  0  0  0  0
 11 18  1  0  0  0  0
 11 12  2  0  0  0  0
 11 16  1  0  0  0  0
 12 13  1  0  0  0  0
 13 14  1  0  0  0  0
 13 15  1  0  0  0  0
 15 16  2  0  0  0  0
 17 18  1  0  0  0  0
 18 19  1  0  0  0  0
M  END
>  <COMPND>
    UNNAMED

>  <AUTHOR>
    GENERATED BY OPEN BABEL 2.4.90

>  <MASTER>
        0    0    0    0    0    0    0    0   19    0   19    0

