__2cdz_A_rec_4o0y_2oo_lig_docked.pdb
 OpenBabel10201902343D

 25 27  0  0  0  0  0  0  0  0999 V2000
   14.1640   32.2710   14.0940 C   0  0  0  0  0  0  0  0  0  0  0  0
   15.1910   32.9030   13.5800 N   0  0  0  0  0  0  0  0  0  0  0  0
   15.0780   34.2420   13.8280 C   0  0  0  0  0  0  0  0  0  0  0  0
   15.8740   35.3560   13.5090 C   0  0  0  0  0  0  0  0  0  0  0  0
   15.5100   36.6220   13.9110 C   0  0  0  0  0  0  0  0  0  0  0  0
   14.3190   36.8160   14.6260 C   0  0  0  0  0  0  0  0  0  0  0  0
   13.5180   35.7180   14.9470 C   0  0  0  0  0  0  0  0  0  0  0  0
   13.8870   34.4380   14.5580 C   0  0  0  0  0  0  0  0  0  0  0  0
   13.3270   33.1730   14.7110 N   0  0  0  0  0  0  0  0  0  0  0  0
   12.1510   32.8620   15.3870 C   0  0  0  0  0  0  0  0  0  0  0  0
   11.6350   31.6260   15.3460 N   0  0  0  0  0  0  0  0  0  0  0  0
   10.5160   31.3420   16.0140 C   0  0  0  0  0  0  0  0  0  0  0  0
    9.9140   32.2900   16.7330 N   0  0  0  0  0  0  0  0  0  0  0  0
   10.4430   33.5250   16.7800 C   0  0  0  0  0  0  0  0  0  0  0  0
   11.5560   33.8040   16.1190 N   0  0  0  0  0  0  0  0  0  0  0  0
    9.8550   34.5320   17.5020 N   0  0  0  0  0  0  0  0  0  0  0  0
   13.9350   30.9060   14.0380 N   0  0  0  0  0  0  0  0  0  0  0  0
   13.1370   28.7750   13.0610 C   0  0  0  0  0  0  0  0  0  0  0  0
   13.4620   30.2490   12.8060 C   0  0  0  0  0  0  0  0  0  0  0  0
   13.9190   38.1290   15.0530 C   0  0  0  0  0  0  0  0  0  0  0  0
   13.6100   39.2090   15.4000 C   0  0  0  0  0  0  0  0  0  0  0  0
   13.2680   40.5950   15.7770 C   0  0  0  0  0  0  0  0  0  0  0  0
   11.7440   40.7310   15.6670 C   0  0  0  0  0  0  0  0  0  0  0  0
   13.7310   40.8600   17.2070 C   0  0  0  0  0  0  0  0  0  0  0  0
   13.8270   41.5670   14.8820 O   0  0  0  0  0  0  0  0  0  0  0  0
  1  2  2  0  0  0  0
  1 17  1  0  0  0  0
  1  9  1  0  0  0  0
  2  3  1  0  0  0  0
  3  4  2  0  0  0  0
  3  8  1  0  0  0  0
  4  5  1  0  0  0  0
  5  6  2  0  0  0  0
  6  7  1  0  0  0  0
  6 20  1  0  0  0  0
  7  8  2  0  0  0  0
  8  9  1  0  0  0  0
  9 10  1  0  0  0  0
 10 11  2  0  0  0  0
 10 15  1  0  0  0  0
 11 12  1  0  0  0  0
 12 13  1  0  0  0  0
 13 14  2  0  0  0  0
 14 15  1  0  0  0  0
 14 16  1  0  0  0  0
 17 19  1  0  0  0  0
 18 19  1  0  0  0  0
 20 21  3  0  0  0  0
 21 22  1  0  0  0  0
 22 25  1  0  0  0  0
 22 23  1  0  0  0  0
 22 24  1  0  0  0  0
M  END
>  <MODEL>
      19

>  <COMPND>
    UNNAMED

>  <AUTHOR>
    GENERATED BY OPEN BABEL 2.4.90

>  <MASTER>
        0    0    0    0    0    0    0    0   25    0   25    0

