__2x4z_A_rec_2x4z_x4z_lig_docked.pdb
 OpenBabel10201902523D

 35 39  0  0  1  0  0  0  0  0999 V2000
   12.1780   33.4140   16.2290 C   0  0  0  0  0  0  0  0  0  0  0  0
   11.6130   34.4250   16.9640 C   0  0  0  0  0  0  0  0  0  0  0  0
   11.3130   32.3180   16.4640 C   0  0  0  0  0  0  0  0  0  0  0  0
   13.3480   33.8790   15.4570 C   0  0  0  0  0  0  0  0  0  0  0  0
   12.3550   35.7430   16.9020 C   0  0  0  0  0  0  0  0  0  0  0  0
   10.4950   34.0450   17.6010 N   0  0  0  0  0  0  0  0  0  0  0  0
   10.2970   32.6830   17.2750 N   0  0  0  0  0  0  0  0  0  0  0  0
   13.3380   35.3570   15.8190 N   0  0  0  0  0  0  0  0  0  0  0  0
   11.3430   36.8320   16.4860 C   0  0  0  0  0  0  0  0  0  0  0  0
   12.9480   36.0990   18.2850 C   0  0  0  0  0  0  0  0  0  0  0  0
   14.1340   36.2820   15.2100 C   0  0  0  0  0  0  0  0  0  0  0  0
   14.9460   35.8800   14.2450 N   0  0  0  0  0  0  0  0  0  0  0  0
   14.1130   37.4610   15.5600 O   0  0  0  0  0  0  0  0  0  0  0  0
   11.5450   30.9720   15.9290 N   0  0  0  0  0  0  0  0  0  0  0  0
   12.6280   30.2090   15.7900 C   0  0  0  0  0  0  0  0  0  0  0  0
   12.4680   28.8200   15.6700 C   0  0  0  0  0  0  0  0  0  0  0  0
   13.8550   30.7910   15.7690 N   0  0  0  0  0  4  0  0  0  0  0  0
   13.6640   28.0370   15.5140 C   0  0  0  0  0  0  0  0  0  0  0  0
   11.0980   27.8140   15.6640 S   0  0  0  0  0  0  0  0  0  0  0  0
   14.9780   30.0480   15.6280 C   0  0  0  0  0  0  0  0  0  0  0  0
   14.8950   28.7080   15.5020 N   0  0  0  0  0  0  0  0  0  0  0  0
   13.3590   26.6430   15.3930 C   0  0  0  0  0  0  0  0  0  0  0  0
   11.9710   26.3740   15.4600 C   0  0  0  0  0  0  0  0  0  0  0  0
   16.2710   30.7250   15.6210 C   0  0  0  0  0  0  0  0  0  0  0  0
   15.8130   36.8590   13.5270 C   0  0  1  0  0  0  0  0  0  0  0  0
   17.0340   37.3520   14.2320 C   0  0  0  0  0  0  0  0  0  0  0  0
   17.6660   38.5490   13.7640 C   0  0  0  0  0  0  0  0  0  0  0  0
   17.5760   36.6410   15.3510 C   0  0  0  0  0  0  0  0  0  0  0  0
   18.8420   39.0300   14.4100 C   0  0  0  0  0  0  0  0  0  0  0  0
   18.7510   37.1160   16.0040 C   0  0  0  0  0  0  0  0  0  0  0  0
   19.3740   38.3110   15.5230 C   0  0  0  0  0  0  0  0  0  0  0  0
   16.1890   36.3440   12.0910 C   0  0  0  0  0  0  0  0  0  0  0  0
   15.7630   34.9610   11.7890 N   0  0  0  0  0  0  0  0  0  0  0  0
   16.7330   34.0420   11.1690 C   0  0  0  0  0  0  0  0  0  0  0  0
   14.5870   35.0420   10.8930 C   0  0  0  0  0  0  0  0  0  0  0  0
  1  4  2  0  0  0  0
  1  3  1  0  0  0  0
  1  2  1  0  0  0  0
  2  5  1  0  0  0  0
  2  6  2  0  0  0  0
  3 14  1  0  0  0  0
  3  7  2  0  0  0  0
  4  8  1  0  0  0  0
  5  8  1  0  0  0  0
  5  9  1  0  0  0  0
  5 10  1  0  0  0  0
  6  7  1  0  0  0  0
  8 11  1  0  0  0  0
 11 12  1  0  0  0  0
 11 13  2  0  0  0  0
 12 25  1  0  0  0  0
 14 15  1  0  0  0  0
 15 16  1  0  0  0  0
 15 17  2  0  0  0  0
 16 18  2  0  0  0  0
 16 19  1  0  0  0  0
 17 20  2  0  0  0  0
 18 22  1  0  0  0  0
 18 21  1  0  0  0  0
 19 23  1  0  0  0  0
 20 21  1  0  0  0  0
 20 24  1  0  0  0  0
 22 23  2  0  0  0  0
 25 32  1  6  0  0  0
 25 26  1  0  0  0  0
 26 27  2  0  0  0  0
 26 28  1  0  0  0  0
 27 29  1  0  0  0  0
 28 30  2  0  0  0  0
 29 31  2  0  0  0  0
 30 31  1  0  0  0  0
 32 33  1  0  0  0  0
 33 35  1  0  0  0  0
 33 34  1  0  0  0  0
M  END
>  <MODEL>
       1

>  <COMPND>
    UNNAMED

>  <AUTHOR>
    GENERATED BY OPEN BABEL 2.4.90

>  <MASTER>
        0    0    0    0    0    0    0    0   35    0   35    0

