__4fif_A_rec_4o0y_2oo_lig_min.pdb
 OpenBabel10201901573D

 25 27  0  0  0  0  0  0  0  0999 V2000
   14.6790   32.5900   14.3960 C   0  0  0  0  0  0  0  0  0  0  0  0
   15.7090   33.2280   13.8930 N   0  0  0  0  0  0  0  0  0  0  0  0
   15.5600   34.5720   14.0950 C   0  0  0  0  0  0  0  0  0  0  0  0
   16.3430   35.6920   13.7650 C   0  0  0  0  0  0  0  0  0  0  0  0
   15.9390   36.9620   14.1160 C   0  0  0  0  0  0  0  0  0  0  0  0
   14.7230   37.1520   14.7870 C   0  0  0  0  0  0  0  0  0  0  0  0
   13.9350   36.0480   15.1180 C   0  0  0  0  0  0  0  0  0  0  0  0
   14.3440   34.7640   14.7820 C   0  0  0  0  0  0  0  0  0  0  0  0
   13.8050   33.4930   14.9580 N   0  0  0  0  0  0  0  0  0  0  0  0
   12.6160   33.1780   15.6070 C   0  0  0  0  0  0  0  0  0  0  0  0
   12.1420   31.9240   15.6150 N   0  0  0  0  0  0  0  0  0  0  0  0
   11.0090   31.6370   16.2560 C   0  0  0  0  0  0  0  0  0  0  0  0
   10.3490   32.6010   16.9010 N   0  0  0  0  0  0  0  0  0  0  0  0
   10.8350   33.8530   16.8990 C   0  0  0  0  0  0  0  0  0  0  0  0
   11.9630   34.1360   16.2640 N   0  0  0  0  0  0  0  0  0  0  0  0
   10.1870   34.8770   17.5440 N   0  0  0  0  0  0  0  0  0  0  0  0
   14.4810   31.2200   14.3760 N   0  0  0  0  0  0  0  0  0  0  0  0
   13.1710   30.9830   12.2880 C   0  0  0  0  0  0  0  0  0  0  0  0
   14.3570   30.4720   13.1110 C   0  0  0  0  0  0  0  0  0  0  0  0
   14.2830   38.4690   15.1600 C   0  0  0  0  0  0  0  0  0  0  0  0
   13.9380   39.5530   15.4570 C   0  0  0  0  0  0  0  0  0  0  0  0
   13.5260   40.9400   15.7550 C   0  0  0  0  0  0  0  0  0  0  0  0
   12.0590   41.0770   15.3320 C   0  0  0  0  0  0  0  0  0  0  0  0
   13.6840   41.2030   17.2500 C   0  0  0  0  0  0  0  0  0  0  0  0
   14.2610   41.9110   14.9950 O   0  0  0  0  0  0  0  0  0  0  0  0
  1  2  2  0  0  0  0
  1 17  1  0  0  0  0
  1  9  1  0  0  0  0
  2  3  1  0  0  0  0
  3  4  2  0  0  0  0
  3  8  1  0  0  0  0
  4  5  1  0  0  0  0
  5  6  2  0  0  0  0
  6  7  1  0  0  0  0
  6 20  1  0  0  0  0
  7  8  2  0  0  0  0
  8  9  1  0  0  0  0
  9 10  1  0  0  0  0
 10 11  2  0  0  0  0
 10 15  1  0  0  0  0
 11 12  1  0  0  0  0
 12 13  1  0  0  0  0
 13 14  2  0  0  0  0
 14 15  1  0  0  0  0
 14 16  1  0  0  0  0
 17 19  1  0  0  0  0
 18 19  1  0  0  0  0
 20 21  3  0  0  0  0
 21 22  1  0  0  0  0
 22 25  1  0  0  0  0
 22 23  1  0  0  0  0
 22 24  1  0  0  0  0
M  END
>  <COMPND>
    UNNAMED

>  <AUTHOR>
    GENERATED BY OPEN BABEL 2.4.90

>  <MASTER>
        0    0    0    0    0    0    0    0   25    0   25    0

