__4fig_A_rec_4fie_anp_lig_min.pdb
 OpenBabel10201902003D

 31 33  0  0  1  0  0  0  0  0999 V2000
   16.6800   33.4220   12.9750 C   0  0  1  0  0  0  0  0  0  0  0  0
   16.0500   33.5260   14.2560 O   0  0  0  0  0  0  0  0  0  0  0  0
   15.5630   33.3420   11.9450 C   0  0  1  0  0  0  0  0  0  0  0  0
   15.8710   32.3770   10.9300 O   0  0  0  0  0  0  0  0  0  0  0  0
   14.3230   32.9430   12.7240 C   0  0  1  0  0  0  0  0  0  0  0  0
   13.9100   31.6210   12.3640 O   0  0  0  0  0  0  0  0  0  0  0  0
   14.7240   32.9900   14.1950 C   0  0  2  0  0  0  0  0  0  0  0  0
   13.7680   33.8170   14.9870 N   0  0  0  0  0  0  0  0  0  0  0  0
   13.8370   35.1520   15.1770 C   0  0  0  0  0  0  0  0  0  0  0  0
   12.8070   35.5950   15.9450 N   0  0  0  0  0  0  0  0  0  0  0  0
   12.0500   34.5260   16.2690 C   0  0  0  0  0  0  0  0  0  0  0  0
   10.8090   34.2830   17.0570 C   0  0  0  0  0  0  0  0  0  0  0  0
   10.1570   35.3000   17.6760 N   0  0  0  0  0  0  0  0  0  0  0  0
   10.3500   33.0110   17.1400 N   0  0  0  0  0  0  0  0  0  0  0  0
   10.9840   31.9850   16.5320 C   0  0  0  0  0  0  0  0  0  0  0  0
   12.1090   32.1330   15.8020 N   0  0  0  0  0  0  0  0  0  0  0  0
   12.6860   33.3550   15.6320 C   0  0  0  0  0  0  0  0  0  0  0  0
   17.6260   34.5970   12.7330 C   0  0  0  0  0  0  0  0  0  0  0  0
   17.2710   35.7240   13.5340 O   0  0  0  0  0  0  0  0  0  0  0  0
   16.7870   37.1160   12.8820 P   0  0  1  0  0  0  0  0  0  0  0  0
   16.4260   36.8830   11.4320 O   0  0  0  0  0  0  0  0  0  0  0  0
   15.7700   37.7040   13.8280 O   0  0  0  0  0  0  0  0  0  0  0  0
   18.1220   38.0230   12.9430 O   0  0  0  0  0  0  0  0  0  0  0  0
   18.4940   39.1380   11.8320 P   0  0  1  0  0  0  0  0  0  0  0  0
   19.7900   39.7610   12.2910 O   0  0  0  0  0  0  0  0  0  0  0  0
   18.4840   38.4920   10.4670 O   0  0  0  0  0  0  0  0  0  0  0  0
   17.2640   40.3840   11.8510 N   0  0  0  0  0  0  0  0  0  0  0  0
   17.7270   42.0720   11.8460 P   0  0  0  0  0  0  0  0  0  0  0  0
   19.0550   42.0720   11.1280 O   0  0  0  0  0  0  0  0  0  0  0  0
   17.8210   42.4600   13.3010 O   0  0  0  0  0  0  0  0  0  0  0  0
   16.6230   42.7810   11.1000 O   0  0  0  0  0  0  0  0  0  0  0  0
  1  3  1  0  0  0  0
  1 18  1  6  0  0  0
  1  2  1  0  0  0  0
  2  7  1  0  0  0  0
  3  4  1  6  0  0  0
  3  5  1  0  0  0  0
  5  6  1  6  0  0  0
  5  7  1  0  0  0  0
  7  8  1  1  0  0  0
  8  9  1  0  0  0  0
  8 17  1  0  0  0  0
  9 10  2  0  0  0  0
 10 11  1  0  0  0  0
 11 17  2  0  0  0  0
 11 12  1  0  0  0  0
 12 14  2  0  0  0  0
 12 13  1  0  0  0  0
 14 15  1  0  0  0  0
 15 16  2  0  0  0  0
 16 17  1  0  0  0  0
 18 19  1  0  0  0  0
 19 20  1  0  0  0  0
 20 21  2  6  0  0  0
 20 22  1  0  0  0  0
 20 23  1  0  0  0  0
 23 24  1  0  0  0  0
 24 26  2  6  0  0  0
 24 27  1  0  0  0  0
 24 25  1  0  0  0  0
 27 28  1  0  0  0  0
 28 31  2  0  0  0  0
 28 29  1  0  0  0  0
 28 30  1  0  0  0  0
M  END
>  <COMPND>
    UNNAMED

>  <AUTHOR>
    GENERATED BY OPEN BABEL 2.4.90

>  <MASTER>
        0    0    0    0    0    0    0    0   31    0   31    0

