__4fig_A_rec_4fie_anp_lig_docked.pdb
 OpenBabel10201902433D

 31 33  0  0  1  0  0  0  0  0999 V2000
   16.8210   33.3320   13.0000 C   0  0  1  0  0  0  0  0  0  0  0  0
   16.2000   33.4970   14.2790 O   0  0  0  0  0  0  0  0  0  0  0  0
   15.7020   33.0600   12.0050 C   0  0  1  0  0  0  0  0  0  0  0  0
   16.0820   32.0380   11.0750 O   0  0  0  0  0  0  0  0  0  0  0  0
   14.5130   32.6280   12.8430 C   0  0  1  0  0  0  0  0  0  0  0  0
   14.2150   31.2470   12.6120 O   0  0  0  0  0  0  0  0  0  0  0  0
   14.9260   32.8430   14.2950 C   0  0  2  0  0  0  0  0  0  0  0  0
   13.9110   33.6530   15.0290 N   0  0  0  0  0  0  0  0  0  0  0  0
   13.9480   34.9880   15.2280 C   0  0  0  0  0  0  0  0  0  0  0  0
   12.8660   35.4130   15.9310 N   0  0  0  0  0  0  0  0  0  0  0  0
   12.1060   34.3300   16.2040 C   0  0  0  0  0  0  0  0  0  0  0  0
   10.8230   34.0660   16.9130 C   0  0  0  0  0  0  0  0  0  0  0  0
   10.1180   35.0700   17.4940 N   0  0  0  0  0  0  0  0  0  0  0  0
   10.3790   32.7870   16.9630 N   0  0  0  0  0  0  0  0  0  0  0  0
   11.0650   31.7730   16.3920 C   0  0  0  0  0  0  0  0  0  0  0  0
   12.2300   31.9410   15.7330 N   0  0  0  0  0  0  0  0  0  0  0  0
   12.7980   33.1720   15.6040 C   0  0  0  0  0  0  0  0  0  0  0  0
   17.6550   34.5580   12.6330 C   0  0  0  0  0  0  0  0  0  0  0  0
   17.3500   35.6660   13.4800 O   0  0  0  0  0  0  0  0  0  0  0  0
   16.7910   37.0600   12.8940 P   0  0  1  0  0  0  0  0  0  0  0  0
   16.3630   36.8560   11.4590 O   0  0  0  0  0  0  0  0  0  0  0  0
   15.8090   37.5900   13.9070 O   0  0  0  0  0  0  0  0  0  0  0  0
   18.1000   38.0070   12.9120 O   0  0  0  0  0  0  0  0  0  0  0  0
   18.3750   39.1690   11.8230 P   0  0  1  0  0  0  0  0  0  0  0  0
   17.1010   39.9740   11.7470 O   0  0  0  0  0  0  0  0  0  0  0  0
   19.6370   39.9070   12.2020 O   0  0  0  0  0  0  0  0  0  0  0  0
   18.6340   38.4250   10.2580 N   0  0  0  0  0  0  0  0  0  0  0  0
   18.3120   39.3300    8.7950 P   0  0  0  0  0  0  0  0  0  0  0  0
   17.1920   38.5580    8.1400 O   0  0  0  0  0  0  0  0  0  0  0  0
   19.6060   39.2990    8.0200 O   0  0  0  0  0  0  0  0  0  0  0  0
   17.9190   40.7090    9.2640 O   0  0  0  0  0  0  0  0  0  0  0  0
  1  3  1  0  0  0  0
  1 18  1  6  0  0  0
  1  2  1  0  0  0  0
  2  7  1  0  0  0  0
  3  4  1  6  0  0  0
  3  5  1  0  0  0  0
  5  6  1  1  0  0  0
  5  7  1  0  0  0  0
  7  8  1  6  0  0  0
  8  9  1  0  0  0  0
  8 17  1  0  0  0  0
  9 10  2  0  0  0  0
 10 11  1  0  0  0  0
 11 17  2  0  0  0  0
 11 12  1  0  0  0  0
 12 14  2  0  0  0  0
 12 13  1  0  0  0  0
 14 15  1  0  0  0  0
 15 16  2  0  0  0  0
 16 17  1  0  0  0  0
 18 19  1  0  0  0  0
 19 20  1  0  0  0  0
 20 21  2  6  0  0  0
 20 22  1  0  0  0  0
 20 23  1  0  0  0  0
 23 24  1  0  0  0  0
 24 26  2  1  0  0  0
 24 27  1  0  0  0  0
 24 25  1  0  0  0  0
 27 28  1  0  0  0  0
 28 31  2  0  0  0  0
 28 29  1  0  0  0  0
 28 30  1  0  0  0  0
M  END
>  <MODEL>
       1

>  <COMPND>
    UNNAMED

>  <AUTHOR>
    GENERATED BY OPEN BABEL 2.4.90

>  <MASTER>
        0    0    0    0    0    0    0    0   31    0   31    0

