__4jdi_A_rec_5vef_m77_lig_docked.pdb
 OpenBabel10201902573D

 20 22  0  0  0  0  0  0  0  0999 V2000
   13.5020   32.1270   12.6750 O   0  0  0  0  0  0  0  0  0  0  0  0
   14.4740   32.9140   13.4940 S   0  0  0  0  0  0  0  0  0  0  0  0
   15.1350   31.8690   14.2520 O   0  0  0  0  0  0  0  0  0  0  0  0
   13.6460   34.1030   14.6290 C   0  0  0  0  0  0  0  0  0  0  0  0
   14.0750   35.4170   14.7140 C   0  0  0  0  0  0  0  0  0  0  0  0
   13.4580   36.2920   15.5620 C   0  0  0  0  0  0  0  0  0  0  0  0
   12.3910   35.8560   16.3420 C   0  0  0  0  0  0  0  0  0  0  0  0
   11.9510   34.5240   16.2580 C   0  0  0  0  0  0  0  0  0  0  0  0
   12.5620   33.6530   15.4170 C   0  0  0  0  0  0  0  0  0  0  0  0
   12.1160   32.3490   15.3480 C   0  0  0  0  0  0  0  0  0  0  0  0
   10.8770   34.1040   17.0440 C   0  0  0  0  0  0  0  0  0  0  0  0
   10.4440   32.8200   16.9710 N   0  0  0  0  0  0  0  0  0  0  0  0
   11.0440   31.9340   16.1360 C   0  0  0  0  0  0  0  0  0  0  0  0
   15.5950   33.7410   12.4940 N   0  0  0  0  0  0  0  0  0  0  0  0
   16.8950   33.9780   12.8850 C   0  0  0  0  0  0  0  0  0  0  0  0
   17.3240   35.4200   12.7950 C   0  0  0  0  0  0  0  0  0  0  0  0
   17.2670   36.0170   11.5000 N   0  0  0  0  0  0  0  0  0  0  0  0
   17.4590   35.1230   10.4070 C   0  0  0  0  0  0  0  0  0  0  0  0
   16.3280   34.1790   10.1840 C   0  0  0  0  0  0  0  0  0  0  0  0
   15.2290   34.2690   11.2160 C   0  0  0  0  0  0  0  0  0  0  0  0
  1  2  2  0  0  0  0
  2 14  1  0  0  0  0
  2  3  2  0  0  0  0
  2  4  1  0  0  0  0
  4  5  2  0  0  0  0
  4  9  1  0  0  0  0
  5  6  1  0  0  0  0
  6  7  2  0  0  0  0
  7  8  1  0  0  0  0
  8  9  2  0  0  0  0
  8 11  1  0  0  0  0
  9 10  1  0  0  0  0
 10 13  2  0  0  0  0
 11 12  2  0  0  0  0
 12 13  1  0  0  0  0
 14 15  1  0  0  0  0
 14 20  1  0  0  0  0
 15 16  1  0  0  0  0
 16 17  1  0  0  0  0
 17 18  1  0  0  0  0
 18 19  1  0  0  0  0
 19 20  1  0  0  0  0
M  END
>  <MODEL>
       1

>  <COMPND>
    UNNAMED

>  <AUTHOR>
    GENERATED BY OPEN BABEL 2.4.90

>  <MASTER>
        0    0    0    0    0    0    0    0   20    0   20    0

