__4jdi_A_rec_4jdi_anp_lig_min.pdb
 OpenBabel10201902123D

 27 29  0  0  1  0  0  0  0  0999 V2000
   16.3660   34.1050   12.8430 C   0  0  1  0  0  0  0  0  0  0  0  0
   15.9320   33.5560   14.0960 O   0  0  0  0  0  0  0  0  0  0  0  0
   15.0680   34.3170   12.0800 C   0  0  1  0  0  0  0  0  0  0  0  0
   15.2910   34.3980   10.6610 O   0  0  0  0  0  0  0  0  0  0  0  0
   14.1620   33.1830   12.5440 C   0  0  1  0  0  0  0  0  0  0  0  0
   14.4330   31.9350   11.8920 O   0  0  0  0  0  0  0  0  0  0  0  0
   14.5910   33.0430   13.9940 C   0  0  2  0  0  0  0  0  0  0  0  0
   13.6600   33.8580   14.8300 N   0  0  0  0  0  0  0  0  0  0  0  0
   13.7680   35.1870   15.0880 C   0  0  0  0  0  0  0  0  0  0  0  0
   12.7680   35.6110   15.8940 N   0  0  0  0  0  0  0  0  0  0  0  0
   11.9830   34.5470   16.1450 C   0  0  0  0  0  0  0  0  0  0  0  0
   10.7570   34.3190   16.9360 C   0  0  0  0  0  0  0  0  0  0  0  0
   10.1770   35.3490   17.5990 N   0  0  0  0  0  0  0  0  0  0  0  0
   10.2520   33.0550   16.9510 N   0  0  0  0  0  0  0  0  0  0  0  0
   10.8430   32.0340   16.2870 C   0  0  0  0  0  0  0  0  0  0  0  0
   11.9740   32.1740   15.5560 N   0  0  0  0  0  0  0  0  0  0  0  0
   12.5710   33.3910   15.4470 C   0  0  0  0  0  0  0  0  0  0  0  0
   17.1650   35.3980   13.0480 C   0  0  0  0  0  0  0  0  0  0  0  0
   16.3230   36.4130   13.6070 O   0  0  0  0  0  0  0  0  0  0  0  0
   16.2550   37.8630   12.9270 P   0  0  2  0  0  0  0  0  0  0  0  0
   15.0770   38.5990   13.5510 O   0  0  0  0  0  0  0  0  0  0  0  0
   16.3310   37.7040   11.4370 O   0  0  0  0  0  0  0  0  0  0  0  0
   17.6260   38.4920   13.4750 O   0  0  0  0  0  0  0  0  0  0  0  0
   18.6650   39.4480   12.6930 P   0  0  1  0  0  0  0  0  0  0  0  0
   18.2460   40.8860   12.7500 O   0  0  0  0  0  0  0  0  0  0  0  0
   19.9840   39.2520   13.5910 O   0  0  0  0  0  0  0  0  0  0  0  0
   18.9300   38.9740   11.0500 N   0  0  0  0  0  0  0  0  0  0  0  0
  1  3  1  0  0  0  0
  1 18  1  1  0  0  0
  1  2  1  0  0  0  0
  2  7  1  0  0  0  0
  3  4  1  6  0  0  0
  3  5  1  0  0  0  0
  5  6  1  6  0  0  0
  5  7  1  0  0  0  0
  7  8  1  1  0  0  0
  8  9  1  0  0  0  0
  8 17  1  0  0  0  0
  9 10  2  0  0  0  0
 10 11  1  0  0  0  0
 11 17  2  0  0  0  0
 11 12  1  0  0  0  0
 12 14  2  0  0  0  0
 12 13  1  0  0  0  0
 14 15  1  0  0  0  0
 15 16  2  0  0  0  0
 16 17  1  0  0  0  0
 18 19  1  0  0  0  0
 19 20  1  0  0  0  0
 20 22  2  6  0  0  0
 20 23  1  0  0  0  0
 20 21  1  0  0  0  0
 23 24  1  0  0  0  0
 24 27  1  6  0  0  0
 24 25  2  0  0  0  0
 24 26  1  0  0  0  0
M  END
>  <COMPND>
    UNNAMED

>  <AUTHOR>
    GENERATED BY OPEN BABEL 2.4.90

>  <MASTER>
        0    0    0    0    0    0    0    0   27    0   27    0

