__4jdi_A_rec_5vef_m77_lig_min.pdb
 OpenBabel10201902273D

 20 22  0  0  0  0  0  0  0  0999 V2000
   13.4000   31.8810   13.1270 O   0  0  0  0  0  0  0  0  0  0  0  0
   14.3870   32.7840   13.7950 S   0  0  0  0  0  0  0  0  0  0  0  0
   15.1150   31.8550   14.6370 O   0  0  0  0  0  0  0  0  0  0  0  0
   13.5780   34.0810   14.8210 C   0  0  0  0  0  0  0  0  0  0  0  0
   14.0600   35.3800   14.8300 C   0  0  0  0  0  0  0  0  0  0  0  0
   13.4570   36.3350   15.5980 C   0  0  0  0  0  0  0  0  0  0  0  0
   12.3510   35.9970   16.3720 C   0  0  0  0  0  0  0  0  0  0  0  0
   11.8570   34.6810   16.3650 C   0  0  0  0  0  0  0  0  0  0  0  0
   12.4540   33.7310   15.6040 C   0  0  0  0  0  0  0  0  0  0  0  0
   11.9550   32.4440   15.6080 C   0  0  0  0  0  0  0  0  0  0  0  0
   10.7450   34.3600   17.1430 C   0  0  0  0  0  0  0  0  0  0  0  0
   10.2600   33.0930   17.1440 N   0  0  0  0  0  0  0  0  0  0  0  0
   10.8450   32.1280   16.3890 C   0  0  0  0  0  0  0  0  0  0  0  0
   15.4320   33.5120   12.6470 N   0  0  0  0  0  0  0  0  0  0  0  0
   14.9840   33.9590   11.4230 C   0  0  0  0  0  0  0  0  0  0  0  0
   15.7460   33.4200   10.2400 C   0  0  0  0  0  0  0  0  0  0  0  0
   17.1410   33.7190   10.1970 N   0  0  0  0  0  0  0  0  0  0  0  0
   17.5230   34.9410   10.8240 C   0  0  0  0  0  0  0  0  0  0  0  0
   17.4220   34.9230   12.3100 C   0  0  0  0  0  0  0  0  0  0  0  0
   16.8360   33.6530   12.8790 C   0  0  0  0  0  0  0  0  0  0  0  0
  1  2  2  0  0  0  0
  2 14  1  0  0  0  0
  2  3  2  0  0  0  0
  2  4  1  0  0  0  0
  4  5  2  0  0  0  0
  4  9  1  0  0  0  0
  5  6  1  0  0  0  0
  6  7  2  0  0  0  0
  7  8  1  0  0  0  0
  8  9  2  0  0  0  0
  8 11  1  0  0  0  0
  9 10  1  0  0  0  0
 10 13  2  0  0  0  0
 11 12  2  0  0  0  0
 12 13  1  0  0  0  0
 14 15  1  0  0  0  0
 14 20  1  0  0  0  0
 15 16  1  0  0  0  0
 16 17  1  0  0  0  0
 17 18  1  0  0  0  0
 18 19  1  0  0  0  0
 19 20  1  0  0  0  0
M  END
>  <COMPND>
    UNNAMED

>  <AUTHOR>
    GENERATED BY OPEN BABEL 2.4.90

>  <MASTER>
        0    0    0    0    0    0    0    0   20    0   20    0

