__4njd_A_rec_4o0x_2oq_lig_min.pdb
 OpenBabel10201902253D

 26 29  0  0  0  0  0  0  0  0999 V2000
   14.1230   30.5130   14.3070 C   0  0  0  0  0  0  0  0  0  0  0  0
   14.9010   31.7330   13.8700 C   0  0  0  0  0  0  0  0  0  0  0  0
   15.9540   31.6520   13.1130 N   0  0  0  0  0  0  0  0  0  0  0  0
   16.4590   32.8850   12.8710 C   0  0  0  0  0  0  0  0  0  0  0  0
   17.5580   33.3380   12.1300 C   0  0  0  0  0  0  0  0  0  0  0  0
   17.8300   34.6680   12.0610 C   0  0  0  0  0  0  0  0  0  0  0  0
   17.0240   35.6000   12.7260 C   0  0  0  0  0  0  0  0  0  0  0  0
   15.9290   35.1640   13.4740 C   0  0  0  0  0  0  0  0  0  0  0  0
   15.6370   33.8040   13.5510 C   0  0  0  0  0  0  0  0  0  0  0  0
   14.6480   33.0510   14.1870 N   0  0  0  0  0  0  0  0  0  0  0  0
   13.6150   33.5780   14.9780 C   0  0  0  0  0  0  0  0  0  0  0  0
   13.6530   34.8520   15.3680 N   0  0  0  0  0  0  0  0  0  0  0  0
   12.6810   35.3690   16.1060 C   0  0  0  0  0  0  0  0  0  0  0  0
   11.6540   34.6210   16.4740 N   0  0  0  0  0  0  0  0  0  0  0  0
   11.5980   33.3440   16.0880 C   0  0  0  0  0  0  0  0  0  0  0  0
   12.5790   32.8370   15.3440 N   0  0  0  0  0  0  0  0  0  0  0  0
   10.5270   32.5460   16.4560 N   0  0  0  0  0  0  0  0  0  0  0  0
   17.3500   36.9940   12.6220 C   0  0  0  0  0  0  0  0  0  0  0  0
   17.6210   38.1360   12.5430 C   0  0  0  0  0  0  0  0  0  0  0  0
   17.9780   39.5620   12.4300 C   0  0  0  0  0  0  0  0  0  0  0  0
   18.1380   39.8940   10.9490 C   0  0  0  0  0  0  0  0  0  0  0  0
   18.5800   41.3490   10.8010 C   0  0  0  0  0  0  0  0  0  0  0  0
   17.5120   42.2470   11.4170 C   0  0  0  0  0  0  0  0  0  0  0  0
   17.3400   41.9060   12.9000 C   0  0  0  0  0  0  0  0  0  0  0  0
   16.8820   40.4530   13.0450 C   0  0  0  0  0  0  0  0  0  0  0  0
   19.2180   39.8270   13.0810 O   0  0  0  0  0  0  0  0  0  0  0  0
  1  2  1  0  0  0  0
  2  3  2  0  0  0  0
  2 10  1  0  0  0  0
  3  4  1  0  0  0  0
  4  5  2  0  0  0  0
  4  9  1  0  0  0  0
  5  6  1  0  0  0  0
  6  7  2  0  0  0  0
  7  8  1  0  0  0  0
  7 18  1  0  0  0  0
  8  9  2  0  0  0  0
  9 10  1  0  0  0  0
 10 11  1  0  0  0  0
 11 16  1  0  0  0  0
 11 12  2  0  0  0  0
 12 13  1  0  0  0  0
 13 14  1  0  0  0  0
 14 15  2  0  0  0  0
 15 16  1  0  0  0  0
 15 17  1  0  0  0  0
 18 19  3  0  0  0  0
 19 20  1  0  0  0  0
 20 26  1  0  0  0  0
 20 21  1  0  0  0  0
 20 25  1  0  0  0  0
 21 22  1  0  0  0  0
 22 23  1  0  0  0  0
 23 24  1  0  0  0  0
 24 25  1  0  0  0  0
M  END
>  <COMPND>
    UNNAMED

>  <AUTHOR>
    GENERATED BY OPEN BABEL 2.4.90

>  <MASTER>
        0    0    0    0    0    0    0    0   26    0   26    0

