__4njd_A_rec_5vef_m77_lig_docked.pdb
 OpenBabel10201903073D

 20 22  0  0  0  0  0  0  0  0999 V2000
   13.1780   32.2780   12.9020 O   0  0  0  0  0  0  0  0  0  0  0  0
   14.1480   33.0480   13.7410 S   0  0  0  0  0  0  0  0  0  0  0  0
   14.8490   31.9840   14.4320 O   0  0  0  0  0  0  0  0  0  0  0  0
   13.3140   34.1570   14.9500 C   0  0  0  0  0  0  0  0  0  0  0  0
   13.7980   35.4320   15.1910 C   0  0  0  0  0  0  0  0  0  0  0  0
   13.1750   36.2470   16.0940 C   0  0  0  0  0  0  0  0  0  0  0  0
   12.0480   35.7900   16.7700 C   0  0  0  0  0  0  0  0  0  0  0  0
   11.5530   34.4970   16.5280 C   0  0  0  0  0  0  0  0  0  0  0  0
   12.1690   33.6860   15.6330 C   0  0  0  0  0  0  0  0  0  0  0  0
   11.6680   32.4200   15.4070 C   0  0  0  0  0  0  0  0  0  0  0  0
   10.4200   34.0560   17.2120 C   0  0  0  0  0  0  0  0  0  0  0  0
    9.9330   32.8100   16.9850 N   0  0  0  0  0  0  0  0  0  0  0  0
   10.5370   31.9830   16.0930 C   0  0  0  0  0  0  0  0  0  0  0  0
   15.2270   33.9520   12.7620 N   0  0  0  0  0  0  0  0  0  0  0  0
   16.5350   34.1820   13.1290 C   0  0  0  0  0  0  0  0  0  0  0  0
   16.9440   35.6330   13.1190 C   0  0  0  0  0  0  0  0  0  0  0  0
   16.8400   36.3090   11.8670 N   0  0  0  0  0  0  0  0  0  0  0  0
   17.0090   35.4890   10.7130 C   0  0  0  0  0  0  0  0  0  0  0  0
   15.8830   34.5460   10.4640 C   0  0  0  0  0  0  0  0  0  0  0  0
   14.8160   34.5540   11.5330 C   0  0  0  0  0  0  0  0  0  0  0  0
  1  2  2  0  0  0  0
  2 14  1  0  0  0  0
  2  3  2  0  0  0  0
  2  4  1  0  0  0  0
  4  5  2  0  0  0  0
  4  9  1  0  0  0  0
  5  6  1  0  0  0  0
  6  7  2  0  0  0  0
  7  8  1  0  0  0  0
  8  9  2  0  0  0  0
  8 11  1  0  0  0  0
  9 10  1  0  0  0  0
 10 13  2  0  0  0  0
 11 12  2  0  0  0  0
 12 13  1  0  0  0  0
 14 15  1  0  0  0  0
 14 20  1  0  0  0  0
 15 16  1  0  0  0  0
 16 17  1  0  0  0  0
 17 18  1  0  0  0  0
 18 19  1  0  0  0  0
 19 20  1  0  0  0  0
M  END
>  <MODEL>
       1

>  <COMPND>
    UNNAMED

>  <AUTHOR>
    GENERATED BY OPEN BABEL 2.4.90

>  <MASTER>
        0    0    0    0    0    0    0    0   20    0   20    0

