__4njd_A_rec_5vef_m77_lig_docked.pdb
 OpenBabel10201903073D

 20 22  0  0  0  0  0  0  0  0999 V2000
   12.7340   31.4550   12.6510 O   0  0  0  0  0  0  0  0  0  0  0  0
   13.9010   32.1660   13.2570 S   0  0  0  0  0  0  0  0  0  0  0  0
   14.5760   31.0860   13.9510 O   0  0  0  0  0  0  0  0  0  0  0  0
   13.3940   33.4740   14.4480 C   0  0  0  0  0  0  0  0  0  0  0  0
   14.0830   34.6740   14.5170 C   0  0  0  0  0  0  0  0  0  0  0  0
   13.7020   35.6380   15.4070 C   0  0  0  0  0  0  0  0  0  0  0  0
   12.6150   35.4100   16.2440 C   0  0  0  0  0  0  0  0  0  0  0  0
   11.9120   34.1950   16.1770 C   0  0  0  0  0  0  0  0  0  0  0  0
   12.2870   33.2360   15.2940 C   0  0  0  0  0  0  0  0  0  0  0  0
   11.5850   32.0490   15.2410 C   0  0  0  0  0  0  0  0  0  0  0  0
   10.8210   33.9840   17.0200 C   0  0  0  0  0  0  0  0  0  0  0  0
   10.1350   32.8150   16.9630 N   0  0  0  0  0  0  0  0  0  0  0  0
   10.4960   31.8430   16.0870 C   0  0  0  0  0  0  0  0  0  0  0  0
   14.9120   32.8350   12.0440 N   0  0  0  0  0  0  0  0  0  0  0  0
   14.4090   33.3600   10.8740 C   0  0  0  0  0  0  0  0  0  0  0  0
   15.0220   32.7940    9.6180 C   0  0  0  0  0  0  0  0  0  0  0  0
   16.4300   32.9710    9.4680 N   0  0  0  0  0  0  0  0  0  0  0  0
   16.9700   34.1340   10.0910 C   0  0  0  0  0  0  0  0  0  0  0  0
   16.9880   34.0770   11.5790 C   0  0  0  0  0  0  0  0  0  0  0  0
   16.3370   32.8450   12.1630 C   0  0  0  0  0  0  0  0  0  0  0  0
  1  2  2  0  0  0  0
  2 14  1  0  0  0  0
  2  3  2  0  0  0  0
  2  4  1  0  0  0  0
  4  5  2  0  0  0  0
  4  9  1  0  0  0  0
  5  6  1  0  0  0  0
  6  7  2  0  0  0  0
  7  8  1  0  0  0  0
  8  9  2  0  0  0  0
  8 11  1  0  0  0  0
  9 10  1  0  0  0  0
 10 13  2  0  0  0  0
 11 12  2  0  0  0  0
 12 13  1  0  0  0  0
 14 15  1  0  0  0  0
 14 20  1  0  0  0  0
 15 16  1  0  0  0  0
 16 17  1  0  0  0  0
 17 18  1  0  0  0  0
 18 19  1  0  0  0  0
 19 20  1  0  0  0  0
M  END
>  <MODEL>
       3

>  <COMPND>
    UNNAMED

>  <AUTHOR>
    GENERATED BY OPEN BABEL 2.4.90

>  <MASTER>
        0    0    0    0    0    0    0    0   20    0   20    0

