__4o0v_A_rec_4o0x_2oq_lig_min.pdb
 OpenBabel10201902253D

 26 29  0  0  0  0  0  0  0  0999 V2000
   14.6860   32.2850   14.6580 C   0  0  0  0  0  0  0  0  0  0  0  0
   14.4740   33.7780   14.7570 C   0  0  0  0  0  0  0  0  0  0  0  0
   15.3350   34.6350   14.2930 N   0  0  0  0  0  0  0  0  0  0  0  0
   14.9050   35.9010   14.5070 C   0  0  0  0  0  0  0  0  0  0  0  0
   15.4470   37.1570   14.2060 C   0  0  0  0  0  0  0  0  0  0  0  0
   14.7750   38.2880   14.5490 C   0  0  0  0  0  0  0  0  0  0  0  0
   13.5400   38.2160   15.2050 C   0  0  0  0  0  0  0  0  0  0  0  0
   12.9890   36.9720   15.5180 C   0  0  0  0  0  0  0  0  0  0  0  0
   13.6660   35.8040   15.1710 C   0  0  0  0  0  0  0  0  0  0  0  0
   13.4070   34.4410   15.3250 N   0  0  0  0  0  0  0  0  0  0  0  0
   12.2670   33.9010   15.9380 C   0  0  0  0  0  0  0  0  0  0  0  0
   11.5880   34.6120   16.8380 N   0  0  0  0  0  0  0  0  0  0  0  0
   10.5040   34.1210   17.4190 C   0  0  0  0  0  0  0  0  0  0  0  0
   10.0780   32.9050   17.1170 N   0  0  0  0  0  0  0  0  0  0  0  0
   10.7430   32.1810   16.2140 C   0  0  0  0  0  0  0  0  0  0  0  0
   11.8290   32.6870   15.6350 N   0  0  0  0  0  0  0  0  0  0  0  0
   10.3080   30.9090   15.8770 N   0  0  0  0  0  0  0  0  0  0  0  0
   12.8660   39.4370   15.5450 C   0  0  0  0  0  0  0  0  0  0  0  0
   12.3210   40.4400   15.8270 C   0  0  0  0  0  0  0  0  0  0  0  0
   11.6410   41.7060   16.1590 C   0  0  0  0  0  0  0  0  0  0  0  0
   10.1390   41.4950   15.9870 C   0  0  0  0  0  0  0  0  0  0  0  0
    9.4100   42.8110   16.2530 C   0  0  0  0  0  0  0  0  0  0  0  0
    9.7070   43.2500   17.6830 C   0  0  0  0  0  0  0  0  0  0  0  0
   11.2140   43.4500   17.8620 C   0  0  0  0  0  0  0  0  0  0  0  0
   11.9410   42.1260   17.6100 C   0  0  0  0  0  0  0  0  0  0  0  0
   12.0480   42.7470   15.2740 O   0  0  0  0  0  0  0  0  0  0  0  0
  1  2  1  0  0  0  0
  2  3  2  0  0  0  0
  2 10  1  0  0  0  0
  3  4  1  0  0  0  0
  4  5  2  0  0  0  0
  4  9  1  0  0  0  0
  5  6  1  0  0  0  0
  6  7  2  0  0  0  0
  7  8  1  0  0  0  0
  7 18  1  0  0  0  0
  8  9  2  0  0  0  0
  9 10  1  0  0  0  0
 10 11  1  0  0  0  0
 11 16  1  0  0  0  0
 11 12  2  0  0  0  0
 12 13  1  0  0  0  0
 13 14  1  0  0  0  0
 14 15  2  0  0  0  0
 15 16  1  0  0  0  0
 15 17  1  0  0  0  0
 18 19  3  0  0  0  0
 19 20  1  0  0  0  0
 20 26  1  0  0  0  0
 20 21  1  0  0  0  0
 20 25  1  0  0  0  0
 21 22  1  0  0  0  0
 22 23  1  0  0  0  0
 23 24  1  0  0  0  0
 24 25  1  0  0  0  0
M  END
>  <COMPND>
    UNNAMED

>  <AUTHOR>
    GENERATED BY OPEN BABEL 2.4.90

>  <MASTER>
        0    0    0    0    0    0    0    0   26    0   26    0

