__4o0x_A_rec_4o0x_2oq_lig_min.pdb
 OpenBabel10201902073D

 26 29  0  0  0  0  0  0  0  0999 V2000
   14.9010   32.3640   14.5440 C   0  0  0  0  0  0  0  0  0  0  0  0
   14.7390   33.8610   14.6750 C   0  0  0  0  0  0  0  0  0  0  0  0
   15.6240   34.6990   14.2230 N   0  0  0  0  0  0  0  0  0  0  0  0
   15.2380   35.9740   14.4680 C   0  0  0  0  0  0  0  0  0  0  0  0
   15.8190   37.2170   14.1900 C   0  0  0  0  0  0  0  0  0  0  0  0
   15.1870   38.3620   14.5620 C   0  0  0  0  0  0  0  0  0  0  0  0
   13.9550   38.3160   15.2260 C   0  0  0  0  0  0  0  0  0  0  0  0
   13.3660   37.0850   15.5170 C   0  0  0  0  0  0  0  0  0  0  0  0
   14.0020   35.9040   15.1390 C   0  0  0  0  0  0  0  0  0  0  0  0
   13.6980   34.5460   15.2660 N   0  0  0  0  0  0  0  0  0  0  0  0
   12.5450   34.0310   15.8760 C   0  0  0  0  0  0  0  0  0  0  0  0
   11.8410   34.7820   16.7230 N   0  0  0  0  0  0  0  0  0  0  0  0
   10.7440   34.3140   17.3000 C   0  0  0  0  0  0  0  0  0  0  0  0
   10.3310   33.0830   17.0470 N   0  0  0  0  0  0  0  0  0  0  0  0
   11.0210   32.3190   16.1980 C   0  0  0  0  0  0  0  0  0  0  0  0
   12.1200   32.8010   15.6210 N   0  0  0  0  0  0  0  0  0  0  0  0
   10.6000   31.0300   15.9130 N   0  0  0  0  0  0  0  0  0  0  0  0
   13.3250   39.5520   15.5980 C   0  0  0  0  0  0  0  0  0  0  0  0
   12.8150   40.5660   15.9040 C   0  0  0  0  0  0  0  0  0  0  0  0
   12.1780   41.8460   16.2680 C   0  0  0  0  0  0  0  0  0  0  0  0
   10.6660   41.6550   16.2090 C   0  0  0  0  0  0  0  0  0  0  0  0
    9.9760   42.9850   16.5090 C   0  0  0  0  0  0  0  0  0  0  0  0
   10.3830   43.4380   17.9080 C   0  0  0  0  0  0  0  0  0  0  0  0
   11.9020   43.6170   17.9740 C   0  0  0  0  0  0  0  0  0  0  0  0
   12.5910   42.2800   17.6870 C   0  0  0  0  0  0  0  0  0  0  0  0
   12.5340   42.8700   15.3420 O   0  0  0  0  0  0  0  0  0  0  0  0
  1  2  1  0  0  0  0
  2  3  2  0  0  0  0
  2 10  1  0  0  0  0
  3  4  1  0  0  0  0
  4  5  2  0  0  0  0
  4  9  1  0  0  0  0
  5  6  1  0  0  0  0
  6  7  2  0  0  0  0
  7  8  1  0  0  0  0
  7 18  1  0  0  0  0
  8  9  2  0  0  0  0
  9 10  1  0  0  0  0
 10 11  1  0  0  0  0
 11 16  1  0  0  0  0
 11 12  2  0  0  0  0
 12 13  1  0  0  0  0
 13 14  1  0  0  0  0
 14 15  2  0  0  0  0
 15 16  1  0  0  0  0
 15 17  1  0  0  0  0
 18 19  3  0  0  0  0
 19 20  1  0  0  0  0
 20 26  1  0  0  0  0
 20 21  1  0  0  0  0
 20 25  1  0  0  0  0
 21 22  1  0  0  0  0
 22 23  1  0  0  0  0
 23 24  1  0  0  0  0
 24 25  1  0  0  0  0
M  END
>  <COMPND>
    UNNAMED

>  <AUTHOR>
    GENERATED BY OPEN BABEL 2.4.90

>  <MASTER>
        0    0    0    0    0    0    0    0   26    0   26    0

