__4o0x_A_rec_4o0v_2ol_lig_min.pdb
 OpenBabel10201901523D

 30 33  0  0  0  0  0  0  0  0999 V2000
   14.9220   33.5560   14.4150 C   0  0  0  0  0  0  0  0  0  0  0  0
   15.8380   34.3900   13.9850 N   0  0  0  0  0  0  0  0  0  0  0  0
   15.4610   35.6680   14.2500 C   0  0  0  0  0  0  0  0  0  0  0  0
   16.0610   36.9070   14.0080 C   0  0  0  0  0  0  0  0  0  0  0  0
   15.4350   38.0560   14.3950 C   0  0  0  0  0  0  0  0  0  0  0  0
   14.1920   38.0040   15.0340 C   0  0  0  0  0  0  0  0  0  0  0  0
   13.5810   36.7810   15.2760 C   0  0  0  0  0  0  0  0  0  0  0  0
   14.2060   35.6040   14.8920 C   0  0  0  0  0  0  0  0  0  0  0  0
   13.8830   34.2510   14.9880 N   0  0  0  0  0  0  0  0  0  0  0  0
   12.7270   33.6850   15.5490 C   0  0  0  0  0  0  0  0  0  0  0  0
   12.1250   34.2280   16.6910 C   0  0  0  0  0  0  0  0  0  0  0  0
   10.9850   33.6310   17.1960 C   0  0  0  0  0  0  0  0  0  0  0  0
   10.4930   32.5580   16.5930 N   0  0  0  0  0  0  0  0  0  0  0  0
   11.0790   32.0600   15.5140 C   0  0  0  0  0  0  0  0  0  0  0  0
   12.1730   32.6060   14.9950 N   0  0  0  0  0  0  0  0  0  0  0  0
   10.5260   30.9420   14.9150 N   0  0  0  0  0  0  0  0  0  0  0  0
   14.9990   32.1850   14.3030 N   0  0  0  0  0  0  0  0  0  0  0  0
   15.1500   31.5800   12.9760 C   0  0  0  0  0  0  0  0  0  0  0  0
   13.9010   31.8830   12.1440 C   0  0  0  0  0  0  0  0  0  0  0  0
   13.2520   29.5820   12.3560 C   0  0  0  0  0  0  0  0  0  0  0  0
   12.8720   30.9520   12.4890 O   0  0  0  0  0  0  0  0  0  0  0  0
   13.5420   39.2170   15.4410 C   0  0  0  0  0  0  0  0  0  0  0  0
   13.0250   40.2200   15.7560 C   0  0  0  0  0  0  0  0  0  0  0  0
   12.3690   41.4820   16.1480 C   0  0  0  0  0  0  0  0  0  0  0  0
   10.8510   41.2920   16.1440 C   0  0  0  0  0  0  0  0  0  0  0  0
   10.1430   42.5430   16.7000 C   0  0  0  0  0  0  0  0  0  0  0  0
   10.6470   42.8480   18.1100 C   0  0  0  0  0  0  0  0  0  0  0  0
   12.1490   43.1110   18.0590 C   0  0  0  0  0  0  0  0  0  0  0  0
   12.8570   41.8500   17.5640 C   0  0  0  0  0  0  0  0  0  0  0  0
   12.7480   42.5170   15.2480 O   0  0  0  0  0  0  0  0  0  0  0  0
  1  2  2  0  0  0  0
  1 17  1  0  0  0  0
  1  9  1  0  0  0  0
  2  3  1  0  0  0  0
  3  4  2  0  0  0  0
  3  8  1  0  0  0  0
  4  5  1  0  0  0  0
  5  6  2  0  0  0  0
  6 22  1  0  0  0  0
  6  7  1  0  0  0  0
  7  8  2  0  0  0  0
  8  9  1  0  0  0  0
  9 10  1  0  0  0  0
 10 15  2  0  0  0  0
 10 11  1  0  0  0  0
 11 12  2  0  0  0  0
 12 13  1  0  0  0  0
 13 14  2  0  0  0  0
 14 15  1  0  0  0  0
 14 16  1  0  0  0  0
 17 18  1  0  0  0  0
 18 19  1  0  0  0  0
 19 21  1  0  0  0  0
 20 21  1  0  0  0  0
 22 23  3  0  0  0  0
 23 24  1  0  0  0  0
 24 30  1  0  0  0  0
 24 25  1  0  0  0  0
 24 29  1  0  0  0  0
 25 26  1  0  0  0  0
 26 27  1  0  0  0  0
 27 28  1  0  0  0  0
 28 29  1  0  0  0  0
M  END
>  <COMPND>
    UNNAMED

>  <AUTHOR>
    GENERATED BY OPEN BABEL 2.4.90

>  <MASTER>
        0    0    0    0    0    0    0    0   30    0   30    0

