__4o0x_A_rec_5ved_stu_lig_docked.pdb
 OpenBabel10201902543D

 35 42  0  0  1  0  0  0  0  0999 V2000
   16.2730   33.0530   13.6290 O   0  0  0  0  0  0  0  0  0  0  0  0
   15.3990   32.0710   13.1680 C   0  0  2  0  0  0  0  0  0  0  0  0
   15.0230   32.2220   11.7020 C   0  0  0  0  0  0  0  0  0  0  0  0
   15.9370   33.2800   11.0730 C   0  0  2  0  0  0  0  0  0  0  0  0
   15.7130   34.6070   11.8160 C   0  0  2  0  0  0  0  0  0  0  0  0
   16.0180   34.3840   13.2870 C   0  0  2  0  0  0  0  0  0  0  0  0
   17.4070   34.9950   13.4880 C   0  0  0  0  0  0  0  0  0  0  0  0
   15.0100   35.0320   14.1550 N   0  0  0  0  0  0  0  0  0  0  0  0
   13.9520   34.3230   14.7320 C   0  0  0  0  0  0  0  0  0  0  0  0
   13.6070   32.9640   14.6580 C   0  0  0  0  0  0  0  0  0  0  0  0
   12.4870   32.4730   15.3370 C   0  0  0  0  0  0  0  0  0  0  0  0
   11.6950   33.3530   16.1100 C   0  0  0  0  0  0  0  0  0  0  0  0
   12.0430   34.6960   16.1780 C   0  0  0  0  0  0  0  0  0  0  0  0
   13.1540   35.1830   15.5010 C   0  0  0  0  0  0  0  0  0  0  0  0
   13.7590   36.5020   15.3820 C   0  0  0  0  0  0  0  0  0  0  0  0
   14.8930   36.3670   14.5450 C   0  0  0  0  0  0  0  0  0  0  0  0
   15.6500   37.5130   14.2710 C   0  0  0  0  0  0  0  0  0  0  0  0
   15.2650   38.7170   14.8320 C   0  0  0  0  0  0  0  0  0  0  0  0
   14.1580   38.8260   15.6460 C   0  0  0  0  0  0  0  0  0  0  0  0
   13.3800   37.7220   15.9400 C   0  0  0  0  0  0  0  0  0  0  0  0
   11.0170   35.3590   17.0620 C   0  0  0  0  0  0  0  0  0  0  0  0
   10.0860   34.3030   17.4740 N   0  0  0  0  0  0  0  0  0  0  0  0
   10.4830   33.1460   16.9200 C   0  0  0  0  0  0  0  0  0  0  0  0
    9.9160   32.0820   17.0730 O   0  0  0  0  0  0  0  0  0  0  0  0
   12.4290   31.0440   15.0410 C   0  0  0  0  0  0  0  0  0  0  0  0
   13.5260   30.7600   14.1940 C   0  0  0  0  0  0  0  0  0  0  0  0
   13.7510   29.4650   13.7300 C   0  0  0  0  0  0  0  0  0  0  0  0
   12.8590   28.4860   14.1340 C   0  0  0  0  0  0  0  0  0  0  0  0
   11.7870   28.7680   14.9610 C   0  0  0  0  0  0  0  0  0  0  0  0
   11.5410   30.0440   15.4370 C   0  0  0  0  0  0  0  0  0  0  0  0
   14.2080   31.9530   13.9930 N   0  0  0  0  0  0  0  0  0  0  0  0
   15.6490   33.4320    9.6390 N   0  0  0  0  0  0  0  0  0  0  0  0
   15.2260   32.1090    9.1590 C   0  0  0  0  0  0  0  0  0  0  0  0
   14.3390   34.9790   11.6860 O   0  0  0  0  0  0  0  0  0  0  0  0
   14.3180   36.3280   11.2160 C   0  0  0  0  0  0  0  0  0  0  0  0
  1  6  1  0  0  0  0
  1  2  1  0  0  0  0
  2  3  1  6  0  0  0
  2 31  1  0  0  0  0
  3  4  1  0  0  0  0
  4 32  1  6  0  0  0
  4  5  1  0  0  0  0
  5 34  1  1  0  0  0
  5  6  1  0  0  0  0
  6  7  1  1  0  0  0
  6  8  1  0  0  0  0
  8 16  1  0  0  0  0
  8  9  1  0  0  0  0
  9 10  1  0  0  0  0
  9 14  2  0  0  0  0
 10 31  1  0  0  0  0
 10 11  2  0  0  0  0
 11 25  1  0  0  0  0
 11 12  1  0  0  0  0
 12 13  2  0  0  0  0
 12 23  1  0  0  0  0
 13 14  1  0  0  0  0
 13 21  1  0  0  0  0
 14 15  1  0  0  0  0
 15 16  2  0  0  0  0
 15 20  1  0  0  0  0
 16 17  1  0  0  0  0
 17 18  2  0  0  0  0
 18 19  1  0  0  0  0
 19 20  2  0  0  0  0
 21 22  2  0  0  0  0
 22 23  1  0  0  0  0
 23 24  2  0  0  0  0
 25 26  2  0  0  0  0
 25 30  1  0  0  0  0
 26 27  1  0  0  0  0
 26 31  1  0  0  0  0
 27 28  2  0  0  0  0
 28 29  1  0  0  0  0
 29 30  2  0  0  0  0
 32 33  1  0  0  0  0
 34 35  1  0  0  0  0
M  END
>  <MODEL>
       4

>  <COMPND>
    UNNAMED

>  <AUTHOR>
    GENERATED BY OPEN BABEL 2.4.90

>  <MASTER>
        0    0    0    0    0    0    0    0   35    0   35    0

