__4o0y_A_rec_5vef_m77_lig_docked.pdb
 OpenBabel10201902373D

 20 22  0  0  0  0  0  0  0  0999 V2000
   13.0100   31.2480   13.2550 O   0  0  0  0  0  0  0  0  0  0  0  0
   14.0780   32.1730   13.7420 S   0  0  0  0  0  0  0  0  0  0  0  0
   14.9060   31.2800   14.5290 O   0  0  0  0  0  0  0  0  0  0  0  0
   13.4150   33.5280   14.7980 C   0  0  0  0  0  0  0  0  0  0  0  0
   13.9750   34.7940   14.7590 C   0  0  0  0  0  0  0  0  0  0  0  0
   13.4790   35.7930   15.5490 C   0  0  0  0  0  0  0  0  0  0  0  0
   12.4040   35.5320   16.3930 C   0  0  0  0  0  0  0  0  0  0  0  0
   11.8320   34.2490   16.4350 C   0  0  0  0  0  0  0  0  0  0  0  0
   12.3220   33.2550   15.6520 C   0  0  0  0  0  0  0  0  0  0  0  0
   11.7470   32.0020   15.7050 C   0  0  0  0  0  0  0  0  0  0  0  0
   10.7520   34.0050   17.2840 C   0  0  0  0  0  0  0  0  0  0  0  0
   10.1920   32.7700   17.3320 N   0  0  0  0  0  0  0  0  0  0  0  0
   10.6690   31.7640   16.5560 C   0  0  0  0  0  0  0  0  0  0  0  0
   14.9680   32.8320   12.4330 N   0  0  0  0  0  0  0  0  0  0  0  0
   16.2750   33.2480   12.5670 C   0  0  0  0  0  0  0  0  0  0  0  0
   16.5340   34.6600   12.1070 C   0  0  0  0  0  0  0  0  0  0  0  0
   16.2500   34.9400   10.7360 N   0  0  0  0  0  0  0  0  0  0  0  0
   16.3930   33.8370    9.8450 C   0  0  0  0  0  0  0  0  0  0  0  0
   15.3490   32.7860   10.0000 C   0  0  0  0  0  0  0  0  0  0  0  0
   14.3890   33.0260   11.1410 C   0  0  0  0  0  0  0  0  0  0  0  0
  1  2  2  0  0  0  0
  2 14  1  0  0  0  0
  2  3  2  0  0  0  0
  2  4  1  0  0  0  0
  4  5  2  0  0  0  0
  4  9  1  0  0  0  0
  5  6  1  0  0  0  0
  6  7  2  0  0  0  0
  7  8  1  0  0  0  0
  8  9  2  0  0  0  0
  8 11  1  0  0  0  0
  9 10  1  0  0  0  0
 10 13  2  0  0  0  0
 11 12  2  0  0  0  0
 12 13  1  0  0  0  0
 14 15  1  0  0  0  0
 14 20  1  0  0  0  0
 15 16  1  0  0  0  0
 16 17  1  0  0  0  0
 17 18  1  0  0  0  0
 18 19  1  0  0  0  0
 19 20  1  0  0  0  0
M  END
>  <MODEL>
       1

>  <COMPND>
    UNNAMED

>  <AUTHOR>
    GENERATED BY OPEN BABEL 2.4.90

>  <MASTER>
        0    0    0    0    0    0    0    0   20    0   20    0

