__5bms_A_rec_4jdi_anp_lig_min.pdb
 OpenBabel10201902283D

 27 29  0  0  1  0  0  0  0  0999 V2000
   16.5170   33.3620   13.5660 C   0  0  1  0  0  0  0  0  0  0  0  0
   15.9940   33.0440   14.8630 O   0  0  0  0  0  0  0  0  0  0  0  0
   15.2700   33.5700   12.7210 C   0  0  1  0  0  0  0  0  0  0  0  0
   15.5460   33.4200   11.3170 O   0  0  0  0  0  0  0  0  0  0  0  0
   14.2490   32.5990   13.3030 C   0  0  1  0  0  0  0  0  0  0  0  0
   14.4250   31.2510   12.8510 O   0  0  0  0  0  0  0  0  0  0  0  0
   14.6150   32.6400   14.7750 C   0  0  2  0  0  0  0  0  0  0  0  0
   13.7370   33.6470   15.4410 N   0  0  0  0  0  0  0  0  0  0  0  0
   14.0150   34.9650   15.6140 C   0  0  0  0  0  0  0  0  0  0  0  0
   13.0130   35.5940   16.2700 N   0  0  0  0  0  0  0  0  0  0  0  0
   12.0580   34.6760   16.5070 C   0  0  0  0  0  0  0  0  0  0  0  0
   10.7380   34.6920   17.1700 C   0  0  0  0  0  0  0  0  0  0  0  0
   10.2540   35.8470   17.6880 N   0  0  0  0  0  0  0  0  0  0  0  0
   10.0520   33.5180   17.2180 N   0  0  0  0  0  0  0  0  0  0  0  0
   10.5480   32.3700   16.7000 C   0  0  0  0  0  0  0  0  0  0  0  0
   11.7540   32.2860   16.0920 N   0  0  0  0  0  0  0  0  0  0  0  0
   12.5340   33.3920   15.9640 C   0  0  0  0  0  0  0  0  0  0  0  0
   17.4250   34.5970   13.6180 C   0  0  0  0  0  0  0  0  0  0  0  0
   16.7390   35.6850   14.2480 O   0  0  0  0  0  0  0  0  0  0  0  0
   16.3800   37.0010   13.4050 P   0  0  2  0  0  0  0  0  0  0  0  0
   15.4990   37.8750   14.2890 O   0  0  0  0  0  0  0  0  0  0  0  0
   15.8980   36.5900   12.0450 O   0  0  0  0  0  0  0  0  0  0  0  0
   17.8370   37.6630   13.2870 O   0  0  0  0  0  0  0  0  0  0  0  0
   18.3310   38.8040   12.2580 P   0  0  1  0  0  0  0  0  0  0  0  0
   17.7430   40.1420   12.5910 O   0  0  0  0  0  0  0  0  0  0  0  0
   19.9070   38.8320   12.5770 O   0  0  0  0  0  0  0  0  0  0  0  0
   18.0180   38.4160   10.6010 N   0  0  0  0  0  0  0  0  0  0  0  0
  1  3  1  0  0  0  0
  1 18  1  1  0  0  0
  1  2  1  0  0  0  0
  2  7  1  0  0  0  0
  3  4  1  6  0  0  0
  3  5  1  0  0  0  0
  5  6  1  6  0  0  0
  5  7  1  0  0  0  0
  7  8  1  1  0  0  0
  8  9  1  0  0  0  0
  8 17  1  0  0  0  0
  9 10  2  0  0  0  0
 10 11  1  0  0  0  0
 11 17  2  0  0  0  0
 11 12  1  0  0  0  0
 12 14  2  0  0  0  0
 12 13  1  0  0  0  0
 14 15  1  0  0  0  0
 15 16  2  0  0  0  0
 16 17  1  0  0  0  0
 18 19  1  0  0  0  0
 19 20  1  0  0  0  0
 20 22  2  6  0  0  0
 20 23  1  0  0  0  0
 20 21  1  0  0  0  0
 23 24  1  0  0  0  0
 24 27  1  6  0  0  0
 24 25  2  0  0  0  0
 24 26  1  0  0  0  0
M  END
>  <COMPND>
    UNNAMED

>  <AUTHOR>
    GENERATED BY OPEN BABEL 2.4.90

>  <MASTER>
        0    0    0    0    0    0    0    0   27    0   27    0

