__5ved_A_rec_4jdi_anp_lig_min.pdb
 OpenBabel10201901543D

 27 29  0  0  1  0  0  0  0  0999 V2000
   16.2840   33.5720   13.2400 C   0  0  1  0  0  0  0  0  0  0  0  0
   15.6960   33.1050   14.4620 O   0  0  0  0  0  0  0  0  0  0  0  0
   15.0840   33.9890   12.4050 C   0  0  1  0  0  0  0  0  0  0  0  0
   15.3980   34.0280   11.0020 O   0  0  0  0  0  0  0  0  0  0  0  0
   13.9820   33.0170   12.8100 C   0  0  1  0  0  0  0  0  0  0  0  0
   14.0850   31.7400   12.1660 O   0  0  0  0  0  0  0  0  0  0  0  0
   14.2980   32.8150   14.2800 C   0  0  2  0  0  0  0  0  0  0  0  0
   13.4650   33.7720   15.0660 N   0  0  0  0  0  0  0  0  0  0  0  0
   13.7250   35.0910   15.2620 C   0  0  0  0  0  0  0  0  0  0  0  0
   12.7770   35.6670   16.0360 N   0  0  0  0  0  0  0  0  0  0  0  0
   11.8730   34.7150   16.3290 C   0  0  0  0  0  0  0  0  0  0  0  0
   10.6250   34.6690   17.1180 C   0  0  0  0  0  0  0  0  0  0  0  0
   10.1650   35.7900   17.7240 N   0  0  0  0  0  0  0  0  0  0  0  0
    9.9760   33.4750   17.1880 N   0  0  0  0  0  0  0  0  0  0  0  0
   10.4480   32.3610   16.5810 C   0  0  0  0  0  0  0  0  0  0  0  0
   11.5900   32.3320   15.8550 N   0  0  0  0  0  0  0  0  0  0  0  0
   12.3250   33.4650   15.6940 C   0  0  0  0  0  0  0  0  0  0  0  0
   17.2680   34.7200   13.4980 C   0  0  0  0  0  0  0  0  0  0  0  0
   16.5520   35.9290   13.7770 O   0  0  0  0  0  0  0  0  0  0  0  0
   16.6450   37.1680   12.7630 P   0  0  2  0  0  0  0  0  0  0  0  0
   15.3160   37.9080   12.8350 O   0  0  0  0  0  0  0  0  0  0  0  0
   17.1550   36.6760   11.4410 O   0  0  0  0  0  0  0  0  0  0  0  0
   17.7790   38.0390   13.4920 O   0  0  0  0  0  0  0  0  0  0  0  0
   18.5510   39.3390   12.9270 P   0  0  1  0  0  0  0  0  0  0  0  0
   17.8400   40.6070   13.2890 O   0  0  0  0  0  0  0  0  0  0  0  0
   19.9240   39.2540   13.7590 O   0  0  0  0  0  0  0  0  0  0  0  0
   18.8300   39.2830   11.2200 N   0  0  0  0  0  0  0  0  0  0  0  0
  1  3  1  0  0  0  0
  1 18  1  1  0  0  0
  1  2  1  0  0  0  0
  2  7  1  0  0  0  0
  3  4  1  6  0  0  0
  3  5  1  0  0  0  0
  5  6  1  6  0  0  0
  5  7  1  0  0  0  0
  7  8  1  1  0  0  0
  8  9  1  0  0  0  0
  8 17  1  0  0  0  0
  9 10  2  0  0  0  0
 10 11  1  0  0  0  0
 11 17  2  0  0  0  0
 11 12  1  0  0  0  0
 12 14  2  0  0  0  0
 12 13  1  0  0  0  0
 14 15  1  0  0  0  0
 15 16  2  0  0  0  0
 16 17  1  0  0  0  0
 18 19  1  0  0  0  0
 19 20  1  0  0  0  0
 20 22  2  6  0  0  0
 20 23  1  0  0  0  0
 20 21  1  0  0  0  0
 23 24  1  0  0  0  0
 24 27  1  6  0  0  0
 24 25  2  0  0  0  0
 24 26  1  0  0  0  0
M  END
>  <COMPND>
    UNNAMED

>  <AUTHOR>
    GENERATED BY OPEN BABEL 2.4.90

>  <MASTER>
        0    0    0    0    0    0    0    0   27    0   27    0

