__5or8_A_rec_5mgj_7mx_lig_docked.pdb
 OpenBabel10171922143D

 14 14  0  0  0  0  0  0  0  0999 V2000
   32.0040   -7.8090  -71.7940 C   0  0  0  0  0  0  0  0  0  0  0  0
   31.7470   -9.2900  -71.8730 C   0  0  0  0  0  0  0  0  0  0  0  0
   31.8610   -9.9880  -73.1500 N   0  0  0  0  0  0  0  0  0  0  0  0
   31.6130  -11.3820  -73.2040 C   0  0  0  0  0  0  0  0  0  0  0  0
   32.2140   -9.2610  -74.3690 C   0  0  0  0  0  0  0  0  0  0  0  0
   32.3000   -9.8540  -75.4240 O   0  0  0  0  0  0  0  0  0  0  0  0
   32.4710   -7.7780  -74.3090 C   0  0  0  0  0  0  0  0  0  0  0  0
   32.3610   -7.0610  -73.0200 C   0  0  0  0  0  0  0  0  0  0  0  0
   32.6680   -5.3410  -72.9790 Cl  0  0  0  0  0  0  0  0  0  0  0  0
   31.8620   -7.1390  -70.4350 C   0  0  0  0  0  0  0  0  0  0  0  0
   31.2980   -6.0820  -70.2880 O   0  0  0  0  0  0  0  0  0  0  0  0
   32.3800   -7.7590  -69.2970 O   0  0  0  0  0  0  0  0  0  0  0  0
   30.9330   -9.0270  -67.9570 C   0  0  0  0  0  0  0  0  0  0  0  0
   31.5390   -7.6690  -68.1710 C   0  0  0  0  0  0  0  0  0  0  0  0
  1  8  1  0  0  0  0
  1  2  2  0  0  0  0
  1 10  1  0  0  0  0
  2  3  1  0  0  0  0
  3  5  1  0  0  0  0
  3  4  1  0  0  0  0
  5  6  2  0  0  0  0
  5  7  1  0  0  0  0
  7  8  2  0  0  0  0
  8  9  1  0  0  0  0
 10 11  2  0  0  0  0
 10 12  1  0  0  0  0
 12 14  1  0  0  0  0
 13 14  1  0  0  0  0
M  END
>  <MODEL>
       3

>  <COMPND>
    UNNAMED

>  <AUTHOR>
    GENERATED BY OPEN BABEL 2.4.90

>  <MASTER>
        0    0    0    0    0    0    0    0   14    0   14    0

